1
    SWAT Dec 23 2016    VER 2016/Rev 664                                                                 0/ 0/   0      0: 0: 0

    General Input/Output section (file.cio):                                        
    11/14/2011 12:00:00 AM ARCGIS-SWAT interface AV                                 
                                                                                    


       SUB      GIS  MON   AREAkm2  PRECIPmm SNOMELTmm     PETmm      ETmm      SWmm    PERCmm    SURQmm    GW_Qmm    WYLDmm  SYLDt/ha ORGNkg/ha ORGPkg/haNSURQkg/ha SOLPkg/ha SEDPkg/ha LAT Q(mm)LATNO3kg/hGWNO3kg/haCHOLAmic/LCBODU mg/L DOXQ mg/L TNO3kg/ha   QTILEmm TVAPkg/ha
BIGSUB   1        0    1.12360E+04    51.400    11.225    15.052     7.472    69.240     0.000     0.326     0.032     0.424     0.001     0.002     0.000     0.007     0.000     0.001     0.066     0.001     0.000 .00000E+00 0.000E+00 0.000E+00 0.000E+00 0.000E+00 0.000E+00
BIGSUB   2        0    1.37400E+03    51.400    11.225    15.113     7.562    69.065     0.000     0.240     0.027     0.665     0.006     0.009     0.001     0.007     0.000     0.002     0.398     0.004     0.000 .00000E+00 0.000E+00 0.000E+00 0.000E+00 0.000E+00 0.000E+00
BIGSUB   3        0    1.14590E+04    51.400    11.225    15.050     7.521    71.588     0.000     0.188     0.031     0.301     0.005     0.008     0.001     0.005     0.000     0.002     0.082     0.001     0.000 .00000E+00 0.000E+00 0.000E+00 0.000E+00 0.000E+00 0.000E+00
BIGSUB   4        0    1.91800E+03    51.400    11.225    15.061     7.496    70.191     0.000     0.263     0.025     0.353     0.008     0.013     0.002     0.006     0.000     0.003     0.064     0.001     0.000 .00000E+00 0.000E+00 0.000E+00 0.000E+00 0.000E+00 0.000E+00
BIGSUB   5        0    1.37770E+04    51.400    11.225    15.160     7.653    71.206     0.000     0.303     0.055     0.412     0.000     0.000     0.000     0.007     0.000     0.000     0.054     0.001     0.000 .00000E+00 0.000E+00 0.000E+00 0.000E+00 0.000E+00 0.000E+00
BIGSUB   6        0    1.18250E+04    51.400    11.225    15.279     7.769    71.300     0.000     0.308     0.064     0.432     0.000     0.000     0.000     0.006     0.000     0.000     0.060     0.001     0.000 .00000E+00 0.000E+00 0.000E+00 0.000E+00 0.000E+00 0.000E+00
BIGSUB   7        0    1.14660E+04    51.400    11.225    15.290     7.508    62.068     0.000     1.280     0.121     1.409     0.000     0.000     0.000     0.023     0.000     0.000     0.008     0.000     0.000 .00000E+00 0.000E+00 0.000E+00 0.000E+00 0.000E+00 0.000E+00
BIGSUB   8        0    1.34940E+04    51.400    11.225    15.520     7.645    63.567     0.000     0.956     0.061     1.087     0.068     0.090     0.010     0.014     0.000     0.023     0.070     0.001     0.000 .00000E+00 0.000E+00 0.000E+00 0.000E+00 0.000E+00 0.000E+00
BIGSUB   9        0    1.47420E+04    26.400    12.813    16.126     5.725    35.733     0.000     0.000     0.000     0.012     0.000     0.000     0.000     0.000     0.000     0.000     0.012     0.000     0.000 .00000E+00 0.000E+00 0.000E+00 0.000E+00 0.000E+00 0.000E+00
BIGSUB  10        0    1.13380E+04    26.400    12.807    16.283     7.358    26.472     0.000     0.000     0.000     0.009     0.000     0.000     0.000     0.000     0.000     0.000     0.009     0.000     0.000 .00000E+00 0.000E+00 0.000E+00 0.000E+00 0.000E+00 0.000E+00
BIGSUB  11        0    1.24060E+04    38.272    37.456    20.882     9.274    49.460     0.000    11.406     0.015    11.437     0.482     0.687     0.078     0.093     0.002     0.181     0.016     0.000     0.000 .00000E+00 0.000E+00 0.000E+00 0.000E+00 0.000E+00 0.000E+00
BIGSUB  12        0    1.19770E+04    46.500     4.125    14.944     7.083    63.051     0.000     0.123     0.005     0.139     0.000     0.000     0.000     0.006     0.000     0.000     0.011     0.000     0.000 .00000E+00 0.000E+00 0.000E+00 0.000E+00 0.000E+00 0.000E+00
BIGSUB  13        0    1.16410E+04    38.272    37.453    21.038    11.017    46.272     0.000     6.538     0.021     6.569     0.403     0.492     0.057     0.082     0.001     0.130     0.010     0.000     0.000 .00000E+00 0.000E+00 0.000E+00 0.000E+00 0.000E+00 0.000E+00
BIGSUB  14        0    1.52740E+04    46.500     4.125    15.141     7.044    59.147     0.000     0.223     0.018     0.261     0.000     0.000     0.000     0.009     0.000     0.000     0.021     0.000     0.000 .00000E+00 0.000E+00 0.000E+00 0.000E+00 0.000E+00 0.000E+00
BIGSUB  15        0    1.42200E+03    38.272    37.451    21.185    10.408    48.451     0.000     8.711     0.017     8.738     0.347     0.496     0.057     0.086     0.001     0.132     0.010     0.000     0.000 .00000E+00 0.000E+00 0.000E+00 0.000E+00 0.000E+00 0.000E+00
BIGSUB  16        0    1.13850E+04    38.272    37.448    21.310     8.110    52.870     0.000    13.735     0.013    13.759     0.210     0.432     0.049     0.088     0.003     0.125     0.011     0.000     0.000 .00000E+00 0.000E+00 0.000E+00 0.000E+00 0.000E+00 0.000E+00
BIGSUB  17        0    1.17180E+04    46.500     4.125    15.342     6.975    50.844     0.000     0.646     0.081     0.733     0.006     0.020     0.002     0.024     0.000     0.006     0.006     0.000     0.000 .00000E+00 0.000E+00 0.000E+00 0.000E+00 0.000E+00 0.000E+00
BIGSUB  18        0    1.26090E+04    46.500     4.125    15.277     7.119    62.412     0.000     0.025     0.002     0.041     0.000     0.000     0.000     0.001     0.000     0.000     0.015     0.000     0.000 .00000E+00 0.000E+00 0.000E+00 0.000E+00 0.000E+00 0.000E+00
BIGSUB  19        0    1.25380E+04    46.500     4.125    15.474     7.110    58.490     0.000     0.078     0.005     0.120     0.002     0.004     0.000     0.004     0.000     0.001     0.037     0.000     0.000 .00000E+00 0.000E+00 0.000E+00 0.000E+00 0.000E+00 0.000E+00
BIGSUB  20        0    1.19820E+04    46.500     4.125    15.535     7.070    57.155     0.000     0.095     0.006     0.144     0.000     0.000     0.000     0.005     0.000     0.000     0.043     0.001     0.000 .00000E+00 0.000E+00 0.000E+00 0.000E+00 0.000E+00 0.000E+00
BIGSUB   1        0    2.12360E+04    40.600    43.800    25.836    17.676    93.111     0.000    10.788     0.140    10.975     1.587     1.741     0.202     0.040     0.002     0.569     0.046     0.001     0.000 .00000E+00 0.000E+00 0.000E+00 0.000E+00 0.000E+00 0.000E+00
BIGSUB   2        0    2.37400E+03    40.600    43.798    25.908    17.694    91.591     0.000    11.971     0.143    12.325     4.890     3.302     0.380     0.041     0.002     1.088     0.211     0.004     0.000 .00000E+00 0.000E+00 0.000E+00 0.000E+00 0.000E+00 0.000E+00
BIGSUB   3        0    2.14590E+04    40.600    43.800    25.835    17.020    92.560     0.000    14.327     0.124    14.513     2.890     2.815     0.325     0.043     0.003     0.979     0.062     0.001     0.000 .00000E+00 0.000E+00 0.000E+00 0.000E+00 0.000E+00 0.000E+00
BIGSUB   4        0    2.91800E+03    40.600    43.800    25.847    17.421    92.906     0.000    12.293     0.126    12.466     2.157     2.039     0.236     0.041     0.002     0.678     0.046     0.001     0.000 .00000E+00 0.000E+00 0.000E+00 0.000E+00 0.000E+00 0.000E+00
BIGSUB   5        0    2.37770E+04    40.600    43.795    25.964    17.399    89.014     0.000    16.758     0.197    16.995     1.660     3.056     0.357     0.055     0.003     0.865     0.040     0.001     0.000 .00000E+00 0.000E+00 0.000E+00 0.000E+00 0.000E+00 0.000E+00
BIGSUB   6        0    2.18250E+04    40.600    43.790    26.104    16.945    83.550     0.000    22.533     0.215    22.796     5.142     4.906     0.583     0.068     0.004     1.407     0.048     0.001     0.000 .00000E+00 0.000E+00 0.000E+00 0.000E+00 0.000E+00 0.000E+00
BIGSUB   7        0    2.14660E+04    40.600    43.789    26.117    16.937    66.595     0.000    29.956     0.368    30.331     1.978     3.984     0.469     0.141     0.006     1.099     0.007     0.000     0.000 .00000E+00 0.000E+00 0.000E+00 0.000E+00 0.000E+00 0.000E+00
BIGSUB   8        0    2.34940E+04    40.600    43.779    26.378    17.680    70.485     0.000    27.454     0.207    27.703     5.695     5.962     0.681     0.113     0.004     1.519     0.041     0.000     0.000 .00000E+00 0.000E+00 0.000E+00 0.000E+00 0.000E+00 0.000E+00
BIGSUB   9        0    2.47420E+04    35.500    36.773    23.388    11.786    61.069     0.000     9.204     0.078     9.297     0.739     1.190     0.141     0.038     0.002     0.462     0.015     0.000     0.000 .00000E+00 0.000E+00 0.000E+00 0.000E+00 0.000E+00 0.000E+00
BIGSUB  10        0    2.13380E+04    35.500    36.769    23.547    11.942    61.171     0.000     0.378     0.019     0.406     0.089     0.103     0.012     0.003     0.000     0.029     0.010     0.000     0.000 .00000E+00 0.000E+00 0.000E+00 0.000E+00 0.000E+00 0.000E+00
BIGSUB  11        0    2.24060E+04    26.224     9.666    21.797    10.412    45.155     0.000     5.684     0.119     5.816     0.198     0.368     0.042     0.057     0.001     0.097     0.012     0.000     0.000 .00000E+00 0.000E+00 0.000E+00 0.000E+00 0.000E+00 0.000E+00
BIGSUB  12        0    2.19770E+04    44.900    32.625    19.464     8.183    76.480     0.000    12.002     0.083    12.094     0.302     0.966     0.112     0.066     0.003     0.237     0.009     0.000     0.000 .00000E+00 0.000E+00 0.000E+00 0.000E+00 0.000E+00 0.000E+00
BIGSUB  13        0    2.16410E+04    26.224     9.666    21.916    12.323    39.198     0.000     7.005     0.129     7.142     0.226     0.509     0.059     0.071     0.001     0.135     0.009     0.000     0.000 .00000E+00 0.000E+00 0.000E+00 0.000E+00 0.000E+00 0.000E+00
BIGSUB  14        0    2.52740E+04    44.900    32.625    19.642     7.945    74.562     0.000     9.914     0.114    10.043     0.207     0.585     0.068     0.067     0.002     0.154     0.016     0.000     0.000 .00000E+00 0.000E+00 0.000E+00 0.000E+00 0.000E+00 0.000E+00
BIGSUB  15        0    2.42200E+03    26.224     9.666    22.027    11.808    42.612     0.000     5.049     0.103     5.160     0.148     0.265     0.031     0.048     0.001     0.071     0.008     0.000     0.000 .00000E+00 0.000E+00 0.000E+00 0.000E+00 0.000E+00 0.000E+00
BIGSUB  16        0    2.13850E+04    26.224     9.666    22.122     9.275    50.878     0.000     4.065     0.118     4.191     0.035     0.104     0.012     0.039     0.001     0.030     0.009     0.000     0.000 .00000E+00 0.000E+00 0.000E+00 0.000E+00 0.000E+00 0.000E+00
BIGSUB  17        0    2.17180E+04    44.900    32.625    19.824     7.892    62.867     0.000    13.153     0.185    13.343     0.200     0.640     0.075     0.114     0.003     0.175     0.005     0.000     0.000 .00000E+00 0.000E+00 0.000E+00 0.000E+00 0.000E+00 0.000E+00
BIGSUB  18        0    2.26090E+04    44.900    32.625    19.765     7.899    79.634     0.000     8.439     0.070     8.521     0.094     0.274     0.031     0.033     0.002     0.088     0.012     0.000     0.000 .00000E+00 0.000E+00 0.000E+00 0.000E+00 0.000E+00 0.000E+00
BIGSUB  19        0    2.25380E+04    44.900    32.625    19.942     8.149    79.758     0.000     4.600     0.051     4.675     0.053     0.144     0.017     0.019     0.001     0.046     0.024     0.000     0.000 .00000E+00 0.000E+00 0.000E+00 0.000E+00 0.000E+00 0.000E+00
BIGSUB  20        0    2.19820E+04    44.900    32.625    19.997     8.174    79.997     0.000     3.056     0.051     3.135     0.057     0.121     0.014     0.012     0.001     0.044     0.028     0.001     0.000 .00000E+00 0.000E+00 0.000E+00 0.000E+00 0.000E+00 0.000E+00
BIGSUB   1        0    3.12360E+04    40.400     3.000    69.276    39.287    93.358     0.000     0.610     0.244     0.915     0.094     0.121     0.014     0.006     0.000     0.032     0.062     0.001     0.000 .00000E+00 0.000E+00 0.000E+00 0.000E+00 0.000E+00 0.000E+00
BIGSUB   2        0    3.37400E+03    40.400     3.000    69.392    39.454    91.574     0.000     0.549     0.208     1.075     0.238     0.166     0.019     0.004     0.000     0.043     0.318     0.004     0.000 .00000E+00 0.000E+00 0.000E+00 0.000E+00 0.000E+00 0.000E+00
BIGSUB   3        0    3.14590E+04    40.400     3.000    69.274    39.699    92.739     0.000     0.345     0.219     0.644     0.142     0.105     0.012     0.003     0.000     0.027     0.079     0.001     0.000 .00000E+00 0.000E+00 0.000E+00 0.000E+00 0.000E+00 0.000E+00
BIGSUB   4        0    3.91800E+03    40.400     3.000    69.294    39.459    93.132     0.000     0.542     0.191     0.794     0.135     0.124     0.014     0.004     0.000     0.032     0.060     0.001     0.000 .00000E+00 0.000E+00 0.000E+00 0.000E+00 0.000E+00 0.000E+00
BIGSUB   5        0    3.37770E+04    40.400     3.000    69.482    39.895    89.042     0.000     0.294     0.400     0.746     0.056     0.068     0.008     0.003     0.000     0.018     0.052     0.001     0.000 .00000E+00 0.000E+00 0.000E+00 0.000E+00 0.000E+00 0.000E+00
BIGSUB   6        0    3.18250E+04    40.400     3.000    69.706    40.081    83.688     0.000     0.068     0.476     0.605     0.036     0.014     0.002     0.000     0.000     0.004     0.061     0.001     0.000 .00000E+00 0.000E+00 0.000E+00 0.000E+00 0.000E+00 0.000E+00
BIGSUB   7        0    3.14660E+04    40.400     3.000    69.727    36.956    68.141     0.000     1.257     0.755     2.020     0.070     0.150     0.018     0.011     0.000     0.042     0.008     0.000     0.000 .00000E+00 0.000E+00 0.000E+00 0.000E+00 0.000E+00 0.000E+00
BIGSUB   8        0    3.34940E+04    40.400     3.000    70.158    37.493    72.128     0.000     0.911     0.379     1.345     0.099     0.104     0.012     0.008     0.000     0.028     0.055     0.001     0.000 .00000E+00 0.000E+00 0.000E+00 0.000E+00 0.000E+00 0.000E+00
BIGSUB   9        0    3.47420E+04    44.100     0.500    61.109    30.975    72.885     0.000     0.957     0.404     1.403     0.165     0.231     0.027     0.007     0.000     0.062     0.043     0.001     0.000 .00000E+00 0.000E+00 0.000E+00 0.000E+00 0.000E+00 0.000E+00
BIGSUB  10        0    3.13380E+04    44.100     0.500    61.359    29.110    69.110     0.000     6.495     0.167     6.679     1.418     1.498     0.179     0.037     0.001     0.427     0.016     0.000     0.000 .00000E+00 0.000E+00 0.000E+00 0.000E+00 0.000E+00 0.000E+00
BIGSUB  11        0    3.24060E+04     1.524    15.721    54.749    18.502    34.426     0.000     9.385     0.170     9.567     0.541     0.695     0.079     0.049     0.001     0.183     0.012     0.000     0.000 .00000E+00 0.000E+00 0.000E+00 0.000E+00 0.000E+00 0.000E+00
BIGSUB  12        0    3.19770E+04    82.900    67.538    49.658    40.411   127.076     0.000    36.256     0.662    36.932     1.470     3.992     0.465     0.131     0.007     0.983     0.014     0.000     0.000 .00000E+00 0.000E+00 0.000E+00 0.000E+00 0.000E+00 0.000E+00
BIGSUB  13        0    3.16410E+04     1.524    15.721    54.925    18.190    27.608     0.000    10.555     0.180    10.743     0.608     0.881     0.102     0.063     0.002     0.234     0.009     0.000     0.000 .00000E+00 0.000E+00 0.000E+00 0.000E+00 0.000E+00 0.000E+00
BIGSUB  14        0    3.52740E+04    82.900    67.513    49.929    40.147   125.449     0.000    35.014     0.981    36.022     1.500     3.491     0.405     0.129     0.007     0.907     0.027     0.000     0.000 .00000E+00 0.000E+00 0.000E+00 0.000E+00 0.000E+00 0.000E+00
BIGSUB  15        0    3.42200E+03     1.524    15.721    55.089    19.042    31.130     0.000     9.614     0.145     9.767     0.429     0.606     0.070     0.051     0.002     0.162     0.008     0.000     0.000 .00000E+00 0.000E+00 0.000E+00 0.000E+00 0.000E+00 0.000E+00
BIGSUB  16        0    3.13850E+04     1.524    15.721    55.229    19.848    40.467     0.000     7.718     0.172     7.898     0.117     0.249     0.028     0.032     0.001     0.072     0.008     0.000     0.000 .00000E+00 0.000E+00 0.000E+00 0.000E+00 0.000E+00 0.000E+00
BIGSUB  17        0    3.17180E+04    82.900    67.487    50.204    40.279    96.325     2.335    49.899     1.359    51.265     1.470     3.916     0.460     0.205     0.011     1.074     0.007     0.000     0.066 .00000E+00 0.000E+00 0.000E+00 0.000E+00 0.000E+00 0.000E+00
BIGSUB  18        0    3.26090E+04    82.900    67.495    50.115    39.903   140.273     0.000    26.214     0.749    26.982     0.468     1.317     0.151     0.080     0.006     0.424     0.019     0.000     0.000 .00000E+00 0.000E+00 0.000E+00 0.000E+00 0.000E+00 0.000E+00
BIGSUB  19        0    3.25380E+04    82.900    67.470    50.383    40.451   128.159     3.943    34.893     0.904    35.874     2.270     3.694     0.425     0.137     0.007     0.981     0.076     0.001     0.064 .00000E+00 0.000E+00 0.000E+00 0.000E+00 0.000E+00 0.000E+00
BIGSUB  20        0    3.19820E+04    82.900    67.462    50.466    40.396   125.823     5.269    35.987     1.079    37.157     2.455     4.148     0.477     0.152     0.007     1.104     0.091     0.002     0.086 .00000E+00 0.000E+00 0.000E+00 0.000E+00 0.000E+00 0.000E+00
BIGSUB   1        0    4.12360E+04    69.300     3.800   105.468    51.189   104.850     0.000     6.060     0.275     6.411     1.266     1.422     0.167     0.037     0.001     0.376     0.076     0.001     0.000 .00000E+00 0.000E+00 0.000E+00 0.000E+00 0.000E+00 0.000E+00
BIGSUB   2        0    4.37400E+03    69.300     3.800   105.546    51.214   103.621     0.000     5.228     0.199     5.840     3.216     1.951     0.228     0.031     0.001     0.516     0.413     0.004     0.000 .00000E+00 0.000E+00 0.000E+00 0.000E+00 0.000E+00 0.000E+00
BIGSUB   3        0    4.14590E+04    69.300     3.800   105.466    51.784   106.515     0.000     3.295     0.204     3.599     1.866     1.205     0.141     0.020     0.001     0.318     0.099     0.001     0.000 .00000E+00 0.000E+00 0.000E+00 0.000E+00 0.000E+00 0.000E+00
BIGSUB   4        0    4.91800E+03    69.300     3.800   105.480    51.434   105.558     0.000     5.052     0.189     5.316     1.763     1.415     0.166     0.030     0.001     0.374     0.074     0.001     0.000 .00000E+00 0.000E+00 0.000E+00 0.000E+00 0.000E+00 0.000E+00
BIGSUB   5        0    4.37770E+04    69.300     3.800   105.607    51.668   101.620     0.000     4.237     0.442     4.744     0.917     1.060     0.125     0.026     0.001     0.287     0.065     0.001     0.000 .00000E+00 0.000E+00 0.000E+00 0.000E+00 0.000E+00 0.000E+00
BIGSUB   6        0    4.18250E+04    69.300     3.800   105.759    51.799    97.800     0.000     2.483     0.494     3.059     0.894     0.544     0.065     0.012     0.001     0.158     0.083     0.001     0.000 .00000E+00 0.000E+00 0.000E+00 0.000E+00 0.000E+00 0.000E+00
BIGSUB   7        0    4.14660E+04    69.300     3.800   105.773    47.713    77.120     0.000    10.905     0.896    11.809     0.883     1.601     0.190     0.068     0.002     0.453     0.008     0.000     0.000 .00000E+00 0.000E+00 0.000E+00 0.000E+00 0.000E+00 0.000E+00
BIGSUB   8        0    4.34940E+04    69.300     3.800   106.061    48.569    82.794     0.000     9.141     0.434     9.654     2.194     1.760     0.205     0.062     0.002     0.472     0.079     0.001     0.000 .00000E+00 0.000E+00 0.000E+00 0.000E+00 0.000E+00 0.000E+00
BIGSUB   9        0    4.47420E+04    55.600     0.000    96.776    38.153    88.597     0.000     1.361     0.361     1.773     0.494     0.496     0.059     0.012     0.000     0.135     0.051     0.001     0.000 .00000E+00 0.000E+00 0.000E+00 0.000E+00 0.000E+00 0.000E+00
BIGSUB  10        0    4.13380E+04    55.600     0.000    96.948    34.439    81.605     0.000     8.016     0.312     8.347     3.352     2.786     0.334     0.051     0.002     0.803     0.020     0.000     0.000 .00000E+00 0.000E+00 0.000E+00 0.000E+00 0.000E+00 0.000E+00
BIGSUB  11        0    4.24060E+04    57.529     0.000    88.662    35.649    55.316     0.000     0.760     0.127     0.901     0.064     0.075     0.009     0.005     0.000     0.020     0.015     0.000     0.000 .00000E+00 0.000E+00 0.000E+00 0.000E+00 0.000E+00 0.000E+00
BIGSUB  12        0    4.19770E+04    64.700     0.000    85.056    41.298   140.453     0.000     7.779     0.967     8.763     0.531     1.004     0.118     0.057     0.002     0.253     0.018     0.000     0.000 .00000E+00 0.000E+00 0.000E+00 0.000E+00 0.000E+00 0.000E+00
BIGSUB  13        0    4.16410E+04    57.529     0.000    88.783    32.996    50.306     0.000     1.414     0.161     1.584     0.072     0.119     0.014     0.010     0.000     0.033     0.009     0.000     0.000 .00000E+00 0.000E+00 0.000E+00 0.000E+00 0.000E+00 0.000E+00
BIGSUB  14        0    4.52740E+04    64.700     0.000    85.253    40.518   137.471     1.336     7.538     1.853     9.426     0.504     0.876     0.103     0.053     0.002     0.219     0.034     0.001     0.088 .00000E+00 0.000E+00 0.000E+00 0.000E+00 0.000E+00 0.000E+00
BIGSUB  15        0    4.42200E+03    57.529     0.000    88.895    34.197    53.333     0.000     0.865     0.117     0.991     0.039     0.056     0.007     0.006     0.000     0.016     0.009     0.000     0.000 .00000E+00 0.000E+00 0.000E+00 0.000E+00 0.000E+00 0.000E+00
BIGSUB  16        0    4.13850E+04    57.529     0.000    88.991    38.159    59.798     0.000     0.000     0.104     0.114     0.000     0.000     0.000     0.000     0.000     0.000     0.010     0.000     0.000 .00000E+00 0.000E+00 0.000E+00 0.000E+00 0.000E+00 0.000E+00
BIGSUB  17        0    4.17180E+04    64.700     0.000    85.453    37.265    91.934    11.482    15.681     5.769    21.459     0.602     1.277     0.151     0.092     0.003     0.356     0.008     0.000     0.880 .00000E+00 0.000E+00 0.000E+00 0.000E+00 0.000E+00 0.000E+00
BIGSUB  18        0    4.26090E+04    64.700     0.000    85.389    42.205   158.650     0.000     2.253     1.102     3.380     0.040     0.092     0.011     0.021     0.001     0.030     0.025     0.000     0.000 .00000E+00 0.000E+00 0.000E+00 0.000E+00 0.000E+00 0.000E+00
BIGSUB  19        0    4.25380E+04    64.700     0.000    85.581    40.590   136.647     6.533     8.019     3.979    12.093     0.935     1.024     0.119     0.057     0.002     0.271     0.095     0.002     0.343 .00000E+00 0.000E+00 0.000E+00 0.000E+00 0.000E+00 0.000E+00
BIGSUB  20        0    4.19820E+04    64.700     0.000    85.641    40.154   131.836     8.842     8.505     5.199    13.816     0.914     1.136     0.132     0.060     0.002     0.295     0.113     0.002     0.465 .00000E+00 0.000E+00 0.000E+00 0.000E+00 0.000E+00 0.000E+00
BIGSUB   1        0    5.12360E+04    14.600     0.000   160.727    42.607    76.827     0.000     0.023     0.250     0.334     0.000     0.004     0.000     0.000     0.000     0.001     0.061     0.001     0.000 .00000E+00 0.000E+00 0.000E+00 0.000E+00 0.000E+00 0.000E+00
BIGSUB   2        0    5.37400E+03    14.600     0.000   160.753    42.467    75.678     0.000     0.001     0.172     0.401     0.000     0.000     0.000     0.000     0.000     0.000     0.228     0.001     0.000 .00000E+00 0.000E+00 0.000E+00 0.000E+00 0.000E+00 0.000E+00
BIGSUB   3        0    5.14590E+04    14.600     0.000   160.727    43.004    78.089     0.000     0.002     0.164     0.252     0.000     0.001     0.000     0.000     0.000     0.000     0.086     0.001     0.000 .00000E+00 0.000E+00 0.000E+00 0.000E+00 0.000E+00 0.000E+00
BIGSUB   4        0    5.91800E+03    14.600     0.000   160.731    42.772    77.370     0.000     0.002     0.164     0.227     0.000     0.000     0.000     0.000     0.000     0.000     0.060     0.001     0.000 .00000E+00 0.000E+00 0.000E+00 0.000E+00 0.000E+00 0.000E+00
BIGSUB   5        0    5.37770E+04    14.600     0.000   160.773    42.789    73.416     0.000     0.012     0.379     0.447     0.000     0.002     0.000     0.000     0.000     0.001     0.056     0.001     0.000 .00000E+00 0.000E+00 0.000E+00 0.000E+00 0.000E+00 0.000E+00
BIGSUB   6        0    5.18250E+04    14.600     0.000   160.822    43.534    68.847     0.000     0.000     0.400     0.480     0.000     0.000     0.000     0.000     0.000     0.000     0.080     0.001     0.000 .00000E+00 0.000E+00 0.000E+00 0.000E+00 0.000E+00 0.000E+00
BIGSUB   7        0    5.14660E+04    14.600     0.000   160.827    38.706    53.011     0.000     0.262     0.849     1.120     0.000     0.024     0.003     0.003     0.000     0.007     0.009     0.000     0.000 .00000E+00 0.000E+00 0.000E+00 0.000E+00 0.000E+00 0.000E+00
BIGSUB   8        0    5.34940E+04    14.600     0.000   160.916    42.312    55.064     0.000     0.033     0.433     0.531     0.000     0.005     0.001     0.000     0.000     0.001     0.065     0.001     0.000 .00000E+00 0.000E+00 0.000E+00 0.000E+00 0.000E+00 0.000E+00
BIGSUB   9        0    5.47420E+04    22.800     0.000   152.008    47.078    63.769     0.000     0.576     0.242     0.864     0.193     0.252     0.030     0.004     0.000     0.069     0.046     0.000     0.000 .00000E+00 0.000E+00 0.000E+00 0.000E+00 0.000E+00 0.000E+00
BIGSUB  10        0    5.13380E+04    22.800     0.000   152.061    41.695    59.768     0.000     3.001     0.288     3.310     1.573     1.293     0.155     0.012     0.001     0.374     0.021     0.000     0.000 .00000E+00 0.000E+00 0.000E+00 0.000E+00 0.000E+00 0.000E+00
BIGSUB  11        0    5.24060E+04    42.426     0.000   127.176    34.444    62.590     0.000     0.588     0.118     0.723     0.094     0.078     0.009     0.002     0.000     0.022     0.017     0.000     0.000 .00000E+00 0.000E+00 0.000E+00 0.000E+00 0.000E+00 0.000E+00
BIGSUB  12        0    5.19770E+04     7.800     0.000   138.410    39.853   108.398     0.000     1.632     0.705     2.355     0.000     0.236     0.028     0.013     0.000     0.060     0.018     0.000     0.000 .00000E+00 0.000E+00 0.000E+00 0.000E+00 0.000E+00 0.000E+00
BIGSUB  13        0    5.16410E+04    42.426     0.000   127.208    30.995    60.353     0.000     1.085     0.206     1.301     0.114     0.124     0.015     0.003     0.000     0.035     0.010     0.000     0.000 .00000E+00 0.000E+00 0.000E+00 0.000E+00 0.000E+00 0.000E+00
BIGSUB  14        0    5.52740E+04     7.800     0.000   138.467    38.359   106.906     0.000     2.288     1.635     3.957     0.003     0.181     0.021     0.017     0.000     0.046     0.034     0.001     0.000 .00000E+00 0.000E+00 0.000E+00 0.000E+00 0.000E+00 0.000E+00
BIGSUB  15        0    5.42200E+03    42.426     0.000   127.236    32.339    62.523     0.000     0.788     0.133     0.932     0.061     0.070     0.008     0.002     0.000     0.020     0.011     0.000     0.000 .00000E+00 0.000E+00 0.000E+00 0.000E+00 0.000E+00 0.000E+00
BIGSUB  16        0    5.13850E+04    42.426     0.000   127.259    37.068    65.137     0.000     0.000     0.050     0.062     0.000     0.000     0.000     0.000     0.000     0.000     0.012     0.000     0.000 .00000E+00 0.000E+00 0.000E+00 0.000E+00 0.000E+00 0.000E+00
BIGSUB  17        0    5.17180E+04     7.800     0.000   138.520    33.084    66.646     0.000     3.573     5.580     9.162     0.002     0.220     0.026     0.025     0.001     0.062     0.009     0.000     0.399 .00000E+00 0.000E+00 0.000E+00 0.000E+00 0.000E+00 0.000E+00
BIGSUB  18        0    5.26090E+04     7.800     0.000   138.503    41.197   125.249     0.000     1.103     0.875     2.003     0.001     0.033     0.004     0.009     0.000     0.011     0.025     0.000     0.000 .00000E+00 0.000E+00 0.000E+00 0.000E+00 0.000E+00 0.000E+00
BIGSUB  19        0    5.25380E+04     7.800     0.000   138.552    38.721   105.718     0.000     0.453     3.666     4.185     0.000     0.037     0.004     0.004     0.000     0.010     0.066     0.001     0.186 .00000E+00 0.000E+00 0.000E+00 0.000E+00 0.000E+00 0.000E+00
BIGSUB  20        0    5.19820E+04     7.800     0.000   138.566    38.163   101.465     0.000     0.572     4.793     5.441     0.000     0.057     0.007     0.005     0.000     0.015     0.077     0.001     0.252 .00000E+00 0.000E+00 0.000E+00 0.000E+00 0.000E+00 0.000E+00
BIGSUB   1        0    6.12360E+04     3.200     0.000   209.138    64.159    15.865     0.000     0.000     0.132     0.165     0.000     0.000     0.000     0.000     0.000     0.000     0.034     0.000     0.000 .00000E+00 0.000E+00 0.000E+00 0.000E+00 0.000E+00 0.000E+00
BIGSUB   2        0    6.37400E+03     3.200     0.000   209.116    62.388    16.475     0.000     0.000     0.090     0.154     0.000     0.000     0.000     0.000     0.000     0.000     0.064     0.001     0.000 .00000E+00 0.000E+00 0.000E+00 0.000E+00 0.000E+00 0.000E+00
BIGSUB   3        0    6.14590E+04     3.200     0.000   209.138    62.902    18.383     0.000     0.000     0.083     0.140     0.000     0.000     0.000     0.000     0.000     0.000     0.057     0.001     0.000 .00000E+00 0.000E+00 0.000E+00 0.000E+00 0.000E+00 0.000E+00
BIGSUB   4        0    6.91800E+03     3.200     0.000   209.135    63.692    16.876     0.000     0.000     0.086     0.120     0.000     0.000     0.000     0.000     0.000     0.000     0.034     0.000     0.000 .00000E+00 0.000E+00 0.000E+00 0.000E+00 0.000E+00 0.000E+00
BIGSUB   5        0    6.37770E+04     3.200     0.000   209.098    58.741    17.873     0.000     0.000     0.191     0.227     0.000     0.000     0.000     0.000     0.000     0.000     0.036     0.000     0.000 .00000E+00 0.000E+00 0.000E+00 0.000E+00 0.000E+00 0.000E+00
BIGSUB   6        0    6.18250E+04     3.200     0.000   209.052    53.788    18.256     0.000     0.000     0.194     0.255     0.000     0.000     0.000     0.000     0.000     0.000     0.061     0.001     0.000 .00000E+00 0.000E+00 0.000E+00 0.000E+00 0.000E+00 0.000E+00
BIGSUB   7        0    6.14660E+04     3.200     0.000   209.048    47.028     9.182     0.000     0.000     0.451     0.458     0.000     0.000     0.000     0.000     0.000     0.000     0.008     0.000     0.000 .00000E+00 0.000E+00 0.000E+00 0.000E+00 0.000E+00 0.000E+00
BIGSUB   8        0    6.34940E+04     3.200     0.000   208.953    48.567     9.694     0.000     0.000     0.237     0.274     0.000     0.000     0.000     0.000     0.000     0.000     0.037     0.000     0.000 .00000E+00 0.000E+00 0.000E+00 0.000E+00 0.000E+00 0.000E+00
BIGSUB   9        0    6.47420E+04     0.000     0.000   194.207    40.647    23.123     0.000     0.000     0.143     0.169     0.000     0.000     0.000     0.000     0.000     0.000     0.026     0.000     0.000 .00000E+00 0.000E+00 0.000E+00 0.000E+00 0.000E+00 0.000E+00
BIGSUB  10        0    6.13380E+04     0.000     0.000   194.144    42.340    17.429     0.000     0.000     0.205     0.224     0.000     0.000     0.000     0.000     0.000     0.000     0.019     0.000     0.000 .00000E+00 0.000E+00 0.000E+00 0.000E+00 0.000E+00 0.000E+00
BIGSUB  11        0    6.24060E+04     0.000     0.000   163.238    42.182    20.408     0.000     0.046     0.077     0.141     0.000     0.006     0.001     0.000     0.000     0.002     0.017     0.000     0.000 .00000E+00 0.000E+00 0.000E+00 0.000E+00 0.000E+00 0.000E+00
BIGSUB  12        0    6.19770E+04     0.000     0.000   178.358    53.162    55.236     0.000     0.000     0.341     0.356     0.000     0.000     0.000     0.000     0.000     0.000     0.015     0.000     0.000 .00000E+00 0.000E+00 0.000E+00 0.000E+00 0.000E+00 0.000E+00
BIGSUB  13        0    6.16410E+04     0.000     0.000   163.194    45.686    14.667     0.000     0.169     0.154     0.333     0.000     0.018     0.002     0.000     0.000     0.005     0.009     0.000     0.000 .00000E+00 0.000E+00 0.000E+00 0.000E+00 0.000E+00 0.000E+00
BIGSUB  14        0    6.52740E+04     0.000     0.000   178.273    50.747    56.159     0.000     0.000     0.632     0.659     0.000     0.000     0.000     0.000     0.000     0.000     0.028     0.000     0.000 .00000E+00 0.000E+00 0.000E+00 0.000E+00 0.000E+00 0.000E+00
BIGSUB  15        0    6.42200E+03     0.000     0.000   163.150    44.266    18.256     0.000     0.016     0.099     0.126     0.000     0.001     0.000     0.000     0.000     0.000     0.010     0.000     0.000 .00000E+00 0.000E+00 0.000E+00 0.000E+00 0.000E+00 0.000E+00
BIGSUB  16        0    6.13850E+04     0.000     0.000   163.112    39.487    25.650     0.000     0.000     0.020     0.033     0.000     0.000     0.000     0.000     0.000     0.000     0.012     0.000     0.000 .00000E+00 0.000E+00 0.000E+00 0.000E+00 0.000E+00 0.000E+00
BIGSUB  17        0    6.17180E+04     0.000     0.000   178.180    46.730    19.916     0.000     0.000     1.482     1.489     0.000     0.000     0.000     0.000     0.000     0.000     0.008     0.000     0.000 .00000E+00 0.000E+00 0.000E+00 0.000E+00 0.000E+00 0.000E+00
BIGSUB  18        0    6.26090E+04     0.000     0.000   178.211    52.002    73.248     0.000     0.000     0.457     0.478     0.000     0.000     0.000     0.000     0.000     0.000     0.022     0.000     0.000 .00000E+00 0.000E+00 0.000E+00 0.000E+00 0.000E+00 0.000E+00
BIGSUB  19        0    6.25380E+04     0.000     0.000   178.116    50.679    55.039     0.000     0.000     0.977     1.011     0.000     0.000     0.000     0.000     0.000     0.000     0.034     0.001     0.000 .00000E+00 0.000E+00 0.000E+00 0.000E+00 0.000E+00 0.000E+00
BIGSUB  20        0    6.19820E+04     0.000     0.000   178.086    50.440    51.025     0.000     0.000     1.222     1.260     0.000     0.000     0.000     0.000     0.000     0.000     0.038     0.001     0.000 .00000E+00 0.000E+00 0.000E+00 0.000E+00 0.000E+00 0.000E+00
BIGSUB   1        0    7.12360E+04     0.000     0.000   212.019     8.221     7.643     0.000     0.000     0.061     0.082     0.000     0.000     0.000     0.000     0.000     0.000     0.021     0.000     0.000 .00000E+00 0.000E+00 0.000E+00 0.000E+00 0.000E+00 0.000E+00
BIGSUB   2        0    7.37400E+03     0.000     0.000   212.020     8.370     8.105     0.000     0.000     0.042     0.079     0.000     0.000     0.000     0.000     0.000     0.000     0.037     0.001     0.000 .00000E+00 0.000E+00 0.000E+00 0.000E+00 0.000E+00 0.000E+00
BIGSUB   3        0    7.14590E+04     0.000     0.000   212.019     9.140     9.243     0.000     0.000     0.038     0.082     0.000     0.000     0.000     0.000     0.000     0.000     0.044     0.001     0.000 .00000E+00 0.000E+00 0.000E+00 0.000E+00 0.000E+00 0.000E+00
BIGSUB   4        0    7.91800E+03     0.000     0.000   212.019     8.593     8.283     0.000     0.000     0.040     0.062     0.000     0.000     0.000     0.000     0.000     0.000     0.023     0.000     0.000 .00000E+00 0.000E+00 0.000E+00 0.000E+00 0.000E+00 0.000E+00
BIGSUB   5        0    7.37770E+04     0.000     0.000   212.020     8.700     9.173     0.000     0.000     0.087     0.113     0.000     0.000     0.000     0.000     0.000     0.000     0.027     0.000     0.000 .00000E+00 0.000E+00 0.000E+00 0.000E+00 0.000E+00 0.000E+00
BIGSUB   6        0    7.18250E+04     0.000     0.000   212.020     8.663     9.593     0.000     0.000     0.087     0.136     0.000     0.000     0.000     0.000     0.000     0.000     0.049     0.001     0.000 .00000E+00 0.000E+00 0.000E+00 0.000E+00 0.000E+00 0.000E+00
BIGSUB   7        0    7.14660E+04     0.000     0.000   212.020     5.257     3.925     0.000     0.000     0.209     0.216     0.000     0.000     0.000     0.000     0.000     0.000     0.007     0.000     0.000 .00000E+00 0.000E+00 0.000E+00 0.000E+00 0.000E+00 0.000E+00
BIGSUB   8        0    7.34940E+04     0.000     0.000   212.012     5.239     4.454     0.000     0.000     0.111     0.135     0.000     0.000     0.000     0.000     0.000     0.000     0.025     0.000     0.000 .00000E+00 0.000E+00 0.000E+00 0.000E+00 0.000E+00 0.000E+00
BIGSUB   9        0    7.47420E+04     1.000     0.000   196.409    12.623    11.500     0.000     0.000     0.070     0.085     0.000     0.000     0.000     0.000     0.000     0.000     0.015     0.000     0.000 .00000E+00 0.000E+00 0.000E+00 0.000E+00 0.000E+00 0.000E+00
BIGSUB  10        0    7.13380E+04     1.000     0.000   196.401    12.392     6.037     0.000     0.000     0.106     0.123     0.000     0.000     0.000     0.000     0.000     0.000     0.017     0.000     0.000 .00000E+00 0.000E+00 0.000E+00 0.000E+00 0.000E+00 0.000E+00
BIGSUB  11        0    7.24060E+04     9.668     0.000   180.777    18.111    11.962     0.000     0.000     0.044     0.059     0.000     0.000     0.000     0.000     0.000     0.000     0.016     0.000     0.000 .00000E+00 0.000E+00 0.000E+00 0.000E+00 0.000E+00 0.000E+00
BIGSUB  12        0    7.19770E+04     0.200     0.000   186.728    40.508    14.927     0.000     0.000     0.152     0.166     0.000     0.000     0.000     0.000     0.000     0.000     0.014     0.000     0.000 .00000E+00 0.000E+00 0.000E+00 0.000E+00 0.000E+00 0.000E+00
BIGSUB  13        0    7.16410E+04     9.668     0.000   180.767    17.331     7.002     0.000     0.000     0.092     0.101     0.000     0.000     0.000     0.000     0.000     0.000     0.009     0.000     0.000 .00000E+00 0.000E+00 0.000E+00 0.000E+00 0.000E+00 0.000E+00
BIGSUB  14        0    7.52740E+04     0.200     0.000   186.711    43.687    12.672     0.000     0.000     0.242     0.266     0.000     0.000     0.000     0.000     0.000     0.000     0.024     0.000     0.000 .00000E+00 0.000E+00 0.000E+00 0.000E+00 0.000E+00 0.000E+00
BIGSUB  15        0    7.42200E+03     9.668     0.000   180.756    18.797     9.125     0.000     0.000     0.059     0.069     0.000     0.000     0.000     0.000     0.000     0.000     0.010     0.000     0.000 .00000E+00 0.000E+00 0.000E+00 0.000E+00 0.000E+00 0.000E+00
BIGSUB  16        0    7.13850E+04     9.668     0.000   180.745    19.555    15.761     0.000     0.000     0.008     0.019     0.000     0.000     0.000     0.000     0.000     0.000     0.011     0.000     0.000 .00000E+00 0.000E+00 0.000E+00 0.000E+00 0.000E+00 0.000E+00
BIGSUB  17        0    7.17180E+04     0.200     0.000   186.687    14.351     5.765     0.000     0.000     0.574     0.581     0.000     0.000     0.000     0.000     0.000     0.000     0.007     0.000     0.000 .00000E+00 0.000E+00 0.000E+00 0.000E+00 0.000E+00 0.000E+00
BIGSUB  18        0    7.26090E+04     0.200     0.000   186.696    57.161    16.287     0.000     0.000     0.210     0.230     0.000     0.000     0.000     0.000     0.000     0.000     0.019     0.000     0.000 .00000E+00 0.000E+00 0.000E+00 0.000E+00 0.000E+00 0.000E+00
BIGSUB  19        0    7.25380E+04     0.200     0.000   186.668    42.837    12.402     0.000     0.000     0.389     0.409     0.000     0.000     0.000     0.000     0.000     0.000     0.019     0.000     0.000 .00000E+00 0.000E+00 0.000E+00 0.000E+00 0.000E+00 0.000E+00
BIGSUB  20        0    7.19820E+04     0.200     0.000   186.659    39.984    11.241     0.000     0.000     0.479     0.500     0.000     0.000     0.000     0.000     0.000     0.000     0.021     0.000     0.000 .00000E+00 0.000E+00 0.000E+00 0.000E+00 0.000E+00 0.000E+00
BIGSUB   1        0    8.12360E+04     0.000     0.000   189.929     2.135     5.509     0.000     0.000     0.025     0.038     0.000     0.000     0.000     0.000     0.000     0.000     0.014     0.000     0.000 .00000E+00 0.000E+00 0.000E+00 0.000E+00 0.000E+00 0.000E+00
BIGSUB   2        0    8.37400E+03     0.000     0.000   190.021     2.180     5.924     0.000     0.000     0.017     0.039     0.000     0.000     0.000     0.000     0.000     0.000     0.022     0.000     0.000 .00000E+00 0.000E+00 0.000E+00 0.000E+00 0.000E+00 0.000E+00
BIGSUB   3        0    8.14590E+04     0.000     0.000   189.927     2.324     6.919     0.000     0.000     0.015     0.049     0.000     0.000     0.000     0.000     0.000     0.000     0.034     0.000     0.000 .00000E+00 0.000E+00 0.000E+00 0.000E+00 0.000E+00 0.000E+00
BIGSUB   4        0    8.91800E+03     0.000     0.000   189.943     2.211     6.072     0.000     0.000     0.016     0.031     0.000     0.000     0.000     0.000     0.000     0.000     0.015     0.000     0.000 .00000E+00 0.000E+00 0.000E+00 0.000E+00 0.000E+00 0.000E+00
BIGSUB   5        0    8.37770E+04     0.000     0.000   190.092     2.274     6.898     0.000     0.000     0.035     0.054     0.000     0.000     0.000     0.000     0.000     0.000     0.019     0.000     0.000 .00000E+00 0.000E+00 0.000E+00 0.000E+00 0.000E+00 0.000E+00
BIGSUB   6        0    8.18250E+04     0.000     0.000   190.268     2.340     7.253     0.000     0.000     0.035     0.072     0.000     0.000     0.000     0.000     0.000     0.000     0.037     0.000     0.000 .00000E+00 0.000E+00 0.000E+00 0.000E+00 0.000E+00 0.000E+00
BIGSUB   7        0    8.14660E+04     0.000     0.000   190.284     1.563     2.362     0.000     0.000     0.085     0.092     0.000     0.000     0.000     0.000     0.000     0.000     0.007     0.000     0.000 .00000E+00 0.000E+00 0.000E+00 0.000E+00 0.000E+00 0.000E+00
BIGSUB   8        0    8.34940E+04     0.000     0.000   190.617     1.584     2.870     0.000     0.000     0.045     0.062     0.000     0.000     0.000     0.000     0.000     0.000     0.016     0.000     0.000 .00000E+00 0.000E+00 0.000E+00 0.000E+00 0.000E+00 0.000E+00
BIGSUB   9        0    8.47420E+04     0.500     0.000   187.150     3.828     8.171     0.000     0.000     0.029     0.039     0.000     0.000     0.000     0.000     0.000     0.000     0.009     0.000     0.000 .00000E+00 0.000E+00 0.000E+00 0.000E+00 0.000E+00 0.000E+00
BIGSUB  10        0    8.13380E+04     0.500     0.000   187.362     2.970     3.567     0.000     0.000     0.045     0.060     0.000     0.000     0.000     0.000     0.000     0.000     0.015     0.000     0.000 .00000E+00 0.000E+00 0.000E+00 0.000E+00 0.000E+00 0.000E+00
BIGSUB  11        0    8.24060E+04     0.000     0.000   176.056     4.713     7.249     0.000     0.000     0.019     0.033     0.000     0.000     0.000     0.000     0.000     0.000     0.014     0.000     0.000 .00000E+00 0.000E+00 0.000E+00 0.000E+00 0.000E+00 0.000E+00
BIGSUB  12        0    8.19770E+04     0.000     0.000   180.679     4.621    10.306     0.000     0.000     0.061     0.073     0.000     0.000     0.000     0.000     0.000     0.000     0.012     0.000     0.000 .00000E+00 0.000E+00 0.000E+00 0.000E+00 0.000E+00 0.000E+00
BIGSUB  13        0    8.16410E+04     0.000     0.000   176.210     3.253     3.749     0.000     0.000     0.041     0.050     0.000     0.000     0.000     0.000     0.000     0.000     0.008     0.000     0.000 .00000E+00 0.000E+00 0.000E+00 0.000E+00 0.000E+00 0.000E+00
BIGSUB  14        0    8.52740E+04     0.000     0.000   180.945     4.431     8.241     0.000     0.000     0.094     0.114     0.000     0.000     0.000     0.000     0.000     0.000     0.020     0.000     0.000 .00000E+00 0.000E+00 0.000E+00 0.000E+00 0.000E+00 0.000E+00
BIGSUB  15        0    8.42200E+03     0.000     0.000   176.352     3.872     5.253     0.000     0.000     0.027     0.035     0.000     0.000     0.000     0.000     0.000     0.000     0.009     0.000     0.000 .00000E+00 0.000E+00 0.000E+00 0.000E+00 0.000E+00 0.000E+00
BIGSUB  16        0    8.13850E+04     0.000     0.000   176.472     5.831     9.930     0.000     0.000     0.003     0.013     0.000     0.000     0.000     0.000     0.000     0.000     0.010     0.000     0.000 .00000E+00 0.000E+00 0.000E+00 0.000E+00 0.000E+00 0.000E+00
BIGSUB  17        0    8.17180E+04     0.000     0.000   181.211     2.387     3.379     0.000     0.000     0.211     0.218     0.000     0.000     0.000     0.000     0.000     0.000     0.007     0.000     0.000 .00000E+00 0.000E+00 0.000E+00 0.000E+00 0.000E+00 0.000E+00
BIGSUB  18        0    8.26090E+04     0.000     0.000   181.126     5.520    10.767     0.000     0.000     0.085     0.102     0.000     0.000     0.000     0.000     0.000     0.000     0.017     0.000     0.000 .00000E+00 0.000E+00 0.000E+00 0.000E+00 0.000E+00 0.000E+00
BIGSUB  19        0    8.25380E+04     0.000     0.000   181.382     4.354     8.048     0.000     0.000     0.146     0.158     0.000     0.000     0.000     0.000     0.000     0.000     0.012     0.000     0.000 .00000E+00 0.000E+00 0.000E+00 0.000E+00 0.000E+00 0.000E+00
BIGSUB  20        0    8.19820E+04     0.000     0.000   181.460     4.081     7.160     0.000     0.000     0.177     0.190     0.000     0.000     0.000     0.000     0.000     0.000     0.013     0.000     0.000 .00000E+00 0.000E+00 0.000E+00 0.000E+00 0.000E+00 0.000E+00
BIGSUB   1        0    9.12360E+04     0.000     0.000   154.252     0.996     4.513     0.000     0.000     0.009     0.019     0.000     0.000     0.000     0.000     0.000     0.000     0.010     0.000     0.000 .00000E+00 0.000E+00 0.000E+00 0.000E+00 0.000E+00 0.000E+00
BIGSUB   2        0    9.37400E+03     0.000     0.000   154.449     1.012     4.913     0.000     0.000     0.006     0.024     0.000     0.000     0.000     0.000     0.000     0.000     0.017     0.000     0.000 .00000E+00 0.000E+00 0.000E+00 0.000E+00 0.000E+00 0.000E+00
BIGSUB   3        0    9.14590E+04     0.000     0.000   154.247     1.051     5.869     0.000     0.000     0.006     0.032     0.000     0.000     0.000     0.000     0.000     0.000     0.026     0.000     0.000 .00000E+00 0.000E+00 0.000E+00 0.000E+00 0.000E+00 0.000E+00
BIGSUB   4        0    9.91800E+03     0.000     0.000   154.282     1.018     5.054     0.000     0.000     0.006     0.017     0.000     0.000     0.000     0.000     0.000     0.000     0.011     0.000     0.000 .00000E+00 0.000E+00 0.000E+00 0.000E+00 0.000E+00 0.000E+00
BIGSUB   5        0    9.37770E+04     0.000     0.000   154.602     1.044     5.855     0.000     0.000     0.013     0.028     0.000     0.000     0.000     0.000     0.000     0.000     0.014     0.000     0.000 .00000E+00 0.000E+00 0.000E+00 0.000E+00 0.000E+00 0.000E+00
BIGSUB   6        0    9.18250E+04     0.000     0.000   154.982     1.078     6.175     0.000     0.000     0.013     0.041     0.000     0.000     0.000     0.000     0.000     0.000     0.028     0.000     0.000 .00000E+00 0.000E+00 0.000E+00 0.000E+00 0.000E+00 0.000E+00
BIGSUB   7        0    9.14660E+04     0.000     0.000   155.018     0.847     1.516     0.000     0.000     0.032     0.038     0.000     0.000     0.000     0.000     0.000     0.000     0.006     0.000     0.000 .00000E+00 0.000E+00 0.000E+00 0.000E+00 0.000E+00 0.000E+00
BIGSUB   8        0    9.34940E+04     0.000     0.000   155.749     0.847     2.023     0.000     0.000     0.017     0.029     0.000     0.000     0.000     0.000     0.000     0.000     0.012     0.000     0.000 .00000E+00 0.000E+00 0.000E+00 0.000E+00 0.000E+00 0.000E+00
BIGSUB   9        0    9.47420E+04     0.000     0.000   151.075     1.605     6.566     0.000     0.000     0.011     0.018     0.000     0.000     0.000     0.000     0.000     0.000     0.007     0.000     0.000 .00000E+00 0.000E+00 0.000E+00 0.000E+00 0.000E+00 0.000E+00
BIGSUB  10        0    9.13380E+04     0.000     0.000   151.541     1.202     2.365     0.000     0.000     0.018     0.030     0.000     0.000     0.000     0.000     0.000     0.000     0.013     0.000     0.000 .00000E+00 0.000E+00 0.000E+00 0.000E+00 0.000E+00 0.000E+00
BIGSUB  11        0    9.24060E+04     1.380     0.000   121.829     2.537     6.092     0.000     0.000     0.008     0.019     0.000     0.000     0.000     0.000     0.000     0.000     0.011     0.000     0.000 .00000E+00 0.000E+00 0.000E+00 0.000E+00 0.000E+00 0.000E+00
BIGSUB  12        0    9.19770E+04     0.000     0.000   137.300     1.811     8.496     0.000     0.000     0.023     0.033     0.000     0.000     0.000     0.000     0.000     0.000     0.010     0.000     0.000 .00000E+00 0.000E+00 0.000E+00 0.000E+00 0.000E+00 0.000E+00
BIGSUB  13        0    9.16410E+04     1.380     0.000   122.115     2.336     2.794     0.000     0.000     0.017     0.024     0.000     0.000     0.000     0.000     0.000     0.000     0.007     0.000     0.000 .00000E+00 0.000E+00 0.000E+00 0.000E+00 0.000E+00 0.000E+00
BIGSUB  14        0    9.52740E+04     0.000     0.000   137.661     1.681     6.561     0.000     0.000     0.035     0.051     0.000     0.000     0.000     0.000     0.000     0.000     0.016     0.000     0.000 .00000E+00 0.000E+00 0.000E+00 0.000E+00 0.000E+00 0.000E+00
BIGSUB  15        0    9.42200E+03     1.380     0.000   122.381     2.429     4.205     0.000     0.000     0.011     0.018     0.000     0.000     0.000     0.000     0.000     0.000     0.007     0.000     0.000 .00000E+00 0.000E+00 0.000E+00 0.000E+00 0.000E+00 0.000E+00
BIGSUB  16        0    9.13850E+04     1.380     0.000   122.608     2.701     8.609     0.000     0.000     0.001     0.009     0.000     0.000     0.000     0.000     0.000     0.000     0.008     0.000     0.000 .00000E+00 0.000E+00 0.000E+00 0.000E+00 0.000E+00 0.000E+00
BIGSUB  17        0    9.17180E+04     0.000     0.000   138.230     1.081     2.298     0.000     0.000     0.076     0.082     0.000     0.000     0.000     0.000     0.000     0.000     0.006     0.000     0.000 .00000E+00 0.000E+00 0.000E+00 0.000E+00 0.000E+00 0.000E+00
BIGSUB  18        0    9.26090E+04     0.000     0.000   138.047     1.995     8.772     0.000     0.000     0.032     0.047     0.000     0.000     0.000     0.000     0.000     0.000     0.014     0.000     0.000 .00000E+00 0.000E+00 0.000E+00 0.000E+00 0.000E+00 0.000E+00
BIGSUB  19        0    9.25380E+04     0.000     0.000   138.599     1.666     6.382     0.000     0.000     0.053     0.061     0.000     0.000     0.000     0.000     0.000     0.000     0.008     0.000     0.000 .00000E+00 0.000E+00 0.000E+00 0.000E+00 0.000E+00 0.000E+00
BIGSUB  20        0    9.19820E+04     0.000     0.000   138.769     1.573     5.588     0.000     0.000     0.064     0.073     0.000     0.000     0.000     0.000     0.000     0.000     0.008     0.000     0.000 .00000E+00 0.000E+00 0.000E+00 0.000E+00 0.000E+00 0.000E+00
BIGSUB   1        0   10.12360E+04    17.900     0.000    88.216     9.724    12.666     0.000     0.000     0.004     0.018     0.000     0.000     0.000     0.000     0.000     0.000     0.014     0.000     0.000 .00000E+00 0.000E+00 0.000E+00 0.000E+00 0.000E+00 0.000E+00
BIGSUB   2        0   10.37400E+03    17.900     0.000    88.421     9.739    12.971     0.000     0.000     0.003     0.075     0.000     0.000     0.000     0.000     0.000     0.000     0.072     0.001     0.000 .00000E+00 0.000E+00 0.000E+00 0.000E+00 0.000E+00 0.000E+00
BIGSUB   3        0   10.14590E+04    17.900     0.000    88.212     9.766    13.970     0.000     0.000     0.002     0.031     0.000     0.000     0.000     0.000     0.000     0.000     0.029     0.000     0.000 .00000E+00 0.000E+00 0.000E+00 0.000E+00 0.000E+00 0.000E+00
BIGSUB   4        0   10.91800E+03    17.900     0.000    88.247     9.743    13.189     0.000     0.000     0.002     0.017     0.000     0.000     0.000     0.000     0.000     0.000     0.015     0.000     0.000 .00000E+00 0.000E+00 0.000E+00 0.000E+00 0.000E+00 0.000E+00
BIGSUB   5        0   10.37770E+04    17.900     0.000    88.580     9.799    13.935     0.000     0.000     0.005     0.021     0.000     0.000     0.000     0.000     0.000     0.000     0.016     0.000     0.000 .00000E+00 0.000E+00 0.000E+00 0.000E+00 0.000E+00 0.000E+00
BIGSUB   6        0   10.18250E+04    17.900     0.000    88.976     9.830    14.217     0.000     0.000     0.005     0.031     0.000     0.000     0.000     0.000     0.000     0.000     0.026     0.000     0.000 .00000E+00 0.000E+00 0.000E+00 0.000E+00 0.000E+00 0.000E+00
BIGSUB   7        0   10.14660E+04    17.900     0.000    89.013     9.621     9.790     0.000     0.000     0.013     0.019     0.000     0.000     0.000     0.000     0.000     0.000     0.006     0.000     0.000 .00000E+00 0.000E+00 0.000E+00 0.000E+00 0.000E+00 0.000E+00
BIGSUB   8        0   10.34940E+04    17.900     0.000    89.777     9.691    10.208     0.000     0.000     0.007     0.023     0.000     0.000     0.000     0.000     0.000     0.000     0.016     0.000     0.000 .00000E+00 0.000E+00 0.000E+00 0.000E+00 0.000E+00 0.000E+00
BIGSUB   9        0   10.47420E+04    20.400     0.000    81.612     8.540    18.404     0.000     0.000     0.005     0.013     0.000     0.000     0.000     0.000     0.000     0.000     0.008     0.000     0.000 .00000E+00 0.000E+00 0.000E+00 0.000E+00 0.000E+00 0.000E+00
BIGSUB  10        0   10.13380E+04    20.400     0.000    82.069     9.146    13.605     0.000     0.000     0.007     0.019     0.000     0.000     0.000     0.000     0.000     0.000     0.012     0.000     0.000 .00000E+00 0.000E+00 0.000E+00 0.000E+00 0.000E+00 0.000E+00
BIGSUB  11        0   10.24060E+04    19.432     0.000    65.404    11.247    14.265     0.000     0.000     0.002     0.014     0.000     0.000     0.000     0.000     0.000     0.000     0.011     0.000     0.000 .00000E+00 0.000E+00 0.000E+00 0.000E+00 0.000E+00 0.000E+00
BIGSUB  12        0   10.19770E+04    18.400     0.000    73.005     6.231    20.657     0.000     0.000     0.009     0.019     0.000     0.000     0.000     0.000     0.000     0.000     0.010     0.000     0.000 .00000E+00 0.000E+00 0.000E+00 0.000E+00 0.000E+00 0.000E+00
BIGSUB  13        0   10.16410E+04    19.432     0.000    65.694    12.835     9.385     0.000     0.000     0.005     0.012     0.000     0.000     0.000     0.000     0.000     0.000     0.007     0.000     0.000 .00000E+00 0.000E+00 0.000E+00 0.000E+00 0.000E+00 0.000E+00
BIGSUB  14        0   10.52740E+04    18.400     0.000    73.547     6.488    18.458     0.000     0.000     0.014     0.028     0.000     0.000     0.000     0.000     0.000     0.000     0.015     0.000     0.000 .00000E+00 0.000E+00 0.000E+00 0.000E+00 0.000E+00 0.000E+00
BIGSUB  15        0   10.42200E+03    19.432     0.000    65.964    12.157    11.473     0.000     0.000     0.003     0.010     0.000     0.000     0.000     0.000     0.000     0.000     0.007     0.000     0.000 .00000E+00 0.000E+00 0.000E+00 0.000E+00 0.000E+00 0.000E+00
BIGSUB  16        0   10.13850E+04    19.432     0.000    66.195    10.080    17.953     0.000     0.000     0.000     0.008     0.000     0.000     0.000     0.000     0.000     0.000     0.008     0.000     0.000 .00000E+00 0.000E+00 0.000E+00 0.000E+00 0.000E+00 0.000E+00
BIGSUB  17        0   10.17180E+04    18.400     0.000    74.101     6.780    13.914     0.000     0.000     0.030     0.035     0.000     0.000     0.000     0.000     0.000     0.000     0.006     0.000     0.000 .00000E+00 0.000E+00 0.000E+00 0.000E+00 0.000E+00 0.000E+00
BIGSUB  18        0   10.26090E+04    18.400     0.000    73.922     6.372    20.789     0.000     0.000     0.013     0.026     0.000     0.000     0.000     0.000     0.000     0.000     0.013     0.000     0.000 .00000E+00 0.000E+00 0.000E+00 0.000E+00 0.000E+00 0.000E+00
BIGSUB  19        0   10.25380E+04    18.400     0.000    74.462     6.562    18.199     0.000     0.000     0.021     0.029     0.000     0.000     0.000     0.000     0.000     0.000     0.008     0.000     0.000 .00000E+00 0.000E+00 0.000E+00 0.000E+00 0.000E+00 0.000E+00
BIGSUB  20        0   10.19820E+04    18.400     0.000    74.629     6.637    17.326     0.000     0.000     0.025     0.034     0.000     0.000     0.000     0.000     0.000     0.000     0.009     0.000     0.000 .00000E+00 0.000E+00 0.000E+00 0.000E+00 0.000E+00 0.000E+00
BIGSUB   1        0   11.12360E+04    13.000     0.000    54.578     7.844    17.802     0.000     0.000     0.001     0.022     0.000     0.000     0.000     0.000     0.000     0.000     0.020     0.000     0.000 .00000E+00 0.000E+00 0.000E+00 0.000E+00 0.000E+00 0.000E+00
BIGSUB   2        0   11.37400E+03    13.000     0.000    54.774     7.765    18.111     0.000     0.000     0.001     0.108     0.000     0.000     0.000     0.000     0.000     0.000     0.107     0.001     0.000 .00000E+00 0.000E+00 0.000E+00 0.000E+00 0.000E+00 0.000E+00
BIGSUB   3        0   11.14590E+04    13.000     0.000    54.573     7.651    19.288     0.000     0.000     0.001     0.034     0.000     0.000     0.000     0.000     0.000     0.000     0.034     0.000     0.000 .00000E+00 0.000E+00 0.000E+00 0.000E+00 0.000E+00 0.000E+00
BIGSUB   4        0   11.91800E+03    13.000     0.000    54.607     7.770    18.398     0.000     0.000     0.001     0.022     0.000     0.000     0.000     0.000     0.000     0.000     0.021     0.000     0.000 .00000E+00 0.000E+00 0.000E+00 0.000E+00 0.000E+00 0.000E+00
BIGSUB   5        0   11.37770E+04    13.000     0.000    54.927     7.683    19.233     0.000     0.000     0.002     0.021     0.000     0.000     0.000     0.000     0.000     0.000     0.019     0.000     0.000 .00000E+00 0.000E+00 0.000E+00 0.000E+00 0.000E+00 0.000E+00
BIGSUB   6        0   11.18250E+04    13.000     0.000    55.309     7.566    19.624     0.000     0.000     0.002     0.028     0.000     0.000     0.000     0.000     0.000     0.000     0.026     0.000     0.000 .00000E+00 0.000E+00 0.000E+00 0.000E+00 0.000E+00 0.000E+00
BIGSUB   7        0   11.14660E+04    13.000     0.000    55.344     8.941    13.846     0.000     0.000     0.005     0.010     0.000     0.000     0.000     0.000     0.000     0.000     0.006     0.000     0.000 .00000E+00 0.000E+00 0.000E+00 0.000E+00 0.000E+00 0.000E+00
BIGSUB   8        0   11.34940E+04    13.000     0.000    56.082     8.703    14.484     0.000     0.000     0.003     0.024     0.000     0.000     0.000     0.000     0.000     0.000     0.022     0.000     0.000 .00000E+00 0.000E+00 0.000E+00 0.000E+00 0.000E+00 0.000E+00
BIGSUB   9        0   11.47420E+04     0.800     0.000    51.550     7.700    11.504     0.000     0.000     0.002     0.014     0.000     0.000     0.000     0.000     0.000     0.000     0.012     0.000     0.000 .00000E+00 0.000E+00 0.000E+00 0.000E+00 0.000E+00 0.000E+00
BIGSUB  10        0   11.13380E+04     0.800     0.000    52.001     9.384     5.021     0.000     0.000     0.003     0.014     0.000     0.000     0.000     0.000     0.000     0.000     0.011     0.000     0.000 .00000E+00 0.000E+00 0.000E+00 0.000E+00 0.000E+00 0.000E+00
BIGSUB  11        0   11.24060E+04   110.416    10.535    36.286    29.557    92.529     0.000     2.052     0.091     2.164     0.089     0.106     0.013     0.005     0.000     0.031     0.022     0.000     0.000 .00000E+00 0.000E+00 0.000E+00 0.000E+00 0.000E+00 0.000E+00
BIGSUB  12        0   11.19770E+04     6.000     0.000    44.945    10.056    16.598     0.000     0.000     0.003     0.013     0.000     0.000     0.000     0.000     0.000     0.000     0.009     0.000     0.000 .00000E+00 0.000E+00 0.000E+00 0.000E+00 0.000E+00 0.000E+00
BIGSUB  13        0   11.16410E+04   110.416    10.535    36.535    29.427    85.832     0.000     3.764     0.149     3.923     0.105     0.169     0.020     0.010     0.001     0.049     0.010     0.000     0.000 .00000E+00 0.000E+00 0.000E+00 0.000E+00 0.000E+00 0.000E+00
BIGSUB  14        0   11.52740E+04     6.000     0.000    45.466    11.128    13.326     0.000     0.000     0.005     0.019     0.000     0.000     0.000     0.000     0.000     0.000     0.014     0.000     0.000 .00000E+00 0.000E+00 0.000E+00 0.000E+00 0.000E+00 0.000E+00
BIGSUB  15        0   11.42200E+03   110.416    10.535    36.767    29.688    89.158     0.000     2.631     0.073     2.717     0.059     0.089     0.011     0.006     0.000     0.026     0.012     0.000     0.000 .00000E+00 0.000E+00 0.000E+00 0.000E+00 0.000E+00 0.000E+00
BIGSUB  16        0   11.13850E+04   110.416    10.535    36.967    30.304    97.718     0.000     0.128     0.035     0.179     0.002     0.004     0.000     0.001     0.000     0.001     0.015     0.000     0.000 .00000E+00 0.000E+00 0.000E+00 0.000E+00 0.000E+00 0.000E+00
BIGSUB  17        0   11.17180E+04     6.000     0.000    46.001    13.023     6.890     0.000     0.000     0.011     0.016     0.000     0.000     0.000     0.000     0.000     0.000     0.005     0.000     0.000 .00000E+00 0.000E+00 0.000E+00 0.000E+00 0.000E+00 0.000E+00
BIGSUB  18        0   11.26090E+04     6.000     0.000    45.828    10.211    16.575     0.000     0.000     0.005     0.017     0.000     0.000     0.000     0.000     0.000     0.000     0.012     0.000     0.000 .00000E+00 0.000E+00 0.000E+00 0.000E+00 0.000E+00 0.000E+00
BIGSUB  19        0   11.25380E+04     6.000     0.000    46.349    11.221    12.971     0.000     0.000     0.008     0.023     0.000     0.000     0.000     0.000     0.000     0.000     0.016     0.000     0.000 .00000E+00 0.000E+00 0.000E+00 0.000E+00 0.000E+00 0.000E+00
BIGSUB  20        0   11.19820E+04     6.000     0.000    46.511    11.589    11.729     0.000     0.000     0.009     0.027     0.000     0.000     0.000     0.000     0.000     0.000     0.018     0.000     0.000 .00000E+00 0.000E+00 0.000E+00 0.000E+00 0.000E+00 0.000E+00
BIGSUB   1        0   12.12360E+04    39.000     0.000    27.257     7.727    38.028     0.000     0.000     0.000     0.029     0.000     0.000     0.000     0.000     0.000     0.000     0.028     0.000     0.000 .00000E+00 0.000E+00 0.000E+00 0.000E+00 0.000E+00 0.000E+00
BIGSUB   2        0   12.37400E+03    39.000     0.000    27.379     7.565    38.330     0.000     0.000     0.000     0.162     0.000     0.000     0.000     0.000     0.000     0.000     0.162     0.000     0.000 .00000E+00 0.000E+00 0.000E+00 0.000E+00 0.000E+00 0.000E+00
BIGSUB   3        0   12.14590E+04    39.000     0.000    27.255     7.311    39.908     0.000     0.000     0.000     0.042     0.000     0.000     0.000     0.000     0.000     0.000     0.042     0.000     0.000 .00000E+00 0.000E+00 0.000E+00 0.000E+00 0.000E+00 0.000E+00
BIGSUB   4        0   12.91800E+03    39.000     0.000    27.276     7.565    38.785     0.000     0.000     0.000     0.029     0.000     0.000     0.000     0.000     0.000     0.000     0.029     0.000     0.000 .00000E+00 0.000E+00 0.000E+00 0.000E+00 0.000E+00 0.000E+00
BIGSUB   5        0   12.37770E+04    39.000     0.000    27.473     7.345    39.844     0.000     0.000     0.001     0.026     0.000     0.000     0.000     0.000     0.000     0.000     0.025     0.000     0.000 .00000E+00 0.000E+00 0.000E+00 0.000E+00 0.000E+00 0.000E+00
BIGSUB   6        0   12.18250E+04    39.000     0.000    27.709     7.119    40.444     0.000     0.000     0.001     0.032     0.000     0.000     0.000     0.000     0.000     0.000     0.031     0.000     0.000 .00000E+00 0.000E+00 0.000E+00 0.000E+00 0.000E+00 0.000E+00
BIGSUB   7        0   12.14660E+04    39.000     0.000    27.731     9.024    32.803     0.000     0.005     0.002     0.013     0.000     0.000     0.000     0.000     0.000     0.000     0.006     0.000     0.000 .00000E+00 0.000E+00 0.000E+00 0.000E+00 0.000E+00 0.000E+00
BIGSUB   8        0   12.34940E+04    39.000     0.000    28.187     8.808    33.620     0.000     0.001     0.001     0.032     0.000     0.000     0.000     0.000     0.000     0.000     0.030     0.000     0.000 .00000E+00 0.000E+00 0.000E+00 0.000E+00 0.000E+00 0.000E+00
BIGSUB   9        0   12.47420E+04    15.300     0.100    28.129     4.472    11.932     0.000     0.000     0.001     0.009     0.000     0.000     0.000     0.000     0.000     0.000     0.008     0.000     0.000 .00000E+00 0.000E+00 0.000E+00 0.000E+00 0.000E+00 0.000E+00
BIGSUB  10        0   12.13380E+04    15.300     0.100    28.431     4.473     5.448     0.000     0.000     0.001     0.011     0.000     0.000     0.000     0.000     0.000     0.000     0.010     0.000     0.000 .00000E+00 0.000E+00 0.000E+00 0.000E+00 0.000E+00 0.000E+00
BIGSUB  11        0   12.24060E+04    22.312    16.670    21.931    16.011    91.727     0.000     6.896     0.164     7.086     0.423     0.530     0.062     0.033     0.001     0.155     0.026     0.000     0.000 .00000E+00 0.000E+00 0.000E+00 0.000E+00 0.000E+00 0.000E+00
BIGSUB  12        0   12.19770E+04    20.900     1.500    24.144     3.851    15.648     0.000     0.000     0.001     0.010     0.000     0.000     0.000     0.000     0.000     0.000     0.008     0.000     0.000 .00000E+00 0.000E+00 0.000E+00 0.000E+00 0.000E+00 0.000E+00
BIGSUB  13        0   12.16410E+04    22.312    16.667    22.113    15.525    84.350     0.000     8.039     0.274     8.324     0.360     0.511     0.061     0.038     0.001     0.146     0.011     0.000     0.000 .00000E+00 0.000E+00 0.000E+00 0.000E+00 0.000E+00 0.000E+00
BIGSUB  14        0   12.52740E+04    20.900     1.500    24.488     3.891    12.335     0.000     0.000     0.002     0.015     0.000     0.000     0.000     0.000     0.000     0.000     0.013     0.000     0.000 .00000E+00 0.000E+00 0.000E+00 0.000E+00 0.000E+00 0.000E+00
BIGSUB  15        0   12.42200E+03    22.312    16.664    22.284    15.867    87.937     0.000     7.535     0.133     7.682     0.346     0.441     0.052     0.036     0.001     0.127     0.014     0.000     0.000 .00000E+00 0.000E+00 0.000E+00 0.000E+00 0.000E+00 0.000E+00
BIGSUB  16        0   12.13850E+04    22.312    16.662    22.431    16.832    97.946     0.000     5.060     0.058     5.136     0.165     0.274     0.032     0.025     0.001     0.088     0.018     0.000     0.000 .00000E+00 0.000E+00 0.000E+00 0.000E+00 0.000E+00 0.000E+00
BIGSUB  17        0   12.17180E+04    20.900     1.500    24.842     3.804     5.986     0.000     0.000     0.004     0.009     0.000     0.000     0.000     0.000     0.000     0.000     0.005     0.000     0.000 .00000E+00 0.000E+00 0.000E+00 0.000E+00 0.000E+00 0.000E+00
BIGSUB  18        0   12.26090E+04    20.900     1.500    24.728     3.884    15.591     0.000     0.000     0.002     0.013     0.000     0.000     0.000     0.000     0.000     0.000     0.011     0.000     0.000 .00000E+00 0.000E+00 0.000E+00 0.000E+00 0.000E+00 0.000E+00
BIGSUB  19        0   12.25380E+04    20.900     1.500    25.073     3.925    11.946     0.000     0.000     0.003     0.013     0.000     0.000     0.000     0.000     0.000     0.000     0.010     0.000     0.000 .00000E+00 0.000E+00 0.000E+00 0.000E+00 0.000E+00 0.000E+00
BIGSUB  20        0   12.19820E+04    20.900     1.500    25.180     3.938    10.691     0.000     0.000     0.004     0.015     0.000     0.000     0.000     0.000     0.000     0.000     0.012     0.000     0.000 .00000E+00 0.000E+00 0.000E+00 0.000E+00 0.000E+00 0.000E+00
BIGSUB   1        0 1990.12360E+04   289.400    61.825  1311.747   259.037    38.028     0.000    17.807     1.172    19.431     2.949     3.291     0.384     0.090     0.004     0.978     0.452     0.005     0.000 .00000E+00 0.000E+00 0.000E+00 0.000E+00 0.000E+00 0.000E+00
BIGSUB   2        0 1990.37400E+03   289.400    61.823  1312.892   257.411    38.330     0.000    17.989     0.908    20.946     8.350     5.428     0.629     0.083     0.003     1.649     2.049     0.021     0.000 .00000E+00 0.000E+00 0.000E+00 0.000E+00 0.000E+00 0.000E+00
BIGSUB   3        0 1990.14590E+04   289.400    61.825  1311.723   259.173    39.908     0.000    18.158     0.887    19.719     4.903     4.134     0.479     0.071     0.004     1.326     0.674     0.008     0.000 .00000E+00 0.000E+00 0.000E+00 0.000E+00 0.000E+00 0.000E+00
BIGSUB   4        0 1990.91800E+03   289.400    61.825  1311.922   259.174    38.785     0.000    18.154     0.848    19.454     4.064     3.591     0.418     0.082     0.004     1.088     0.452     0.005     0.000 .00000E+00 0.000E+00 0.000E+00 0.000E+00 0.000E+00 0.000E+00
BIGSUB   5        0 1990.37770E+04   289.400    61.820  1313.779   254.989    39.844     0.000    21.604     1.807    23.835     2.633     4.187     0.490     0.092     0.005     1.170     0.425     0.005     0.000 .00000E+00 0.000E+00 0.000E+00 0.000E+00 0.000E+00 0.000E+00
BIGSUB   6        0 1990.18250E+04   289.400    61.815  1315.986   250.512    40.444     0.000    25.392     1.987    27.967     6.071     5.464     0.650     0.086     0.005     1.569     0.588     0.007     0.000 .00000E+00 0.000E+00 0.000E+00 0.000E+00 0.000E+00 0.000E+00
BIGSUB   7        0 1990.14660E+04   289.400    61.814  1316.192   230.101    32.803     0.000    43.666     3.784    47.534     2.930     5.760     0.680     0.246     0.008     1.601     0.085     0.001     0.000 .00000E+00 0.000E+00 0.000E+00 0.000E+00 0.000E+00 0.000E+00
BIGSUB   8        0 1990.34940E+04   289.400    61.804  1320.412   237.137    33.620     0.000    38.496     1.935    40.898     8.055     7.920     0.909     0.197     0.006     2.043     0.467     0.005     0.000 .00000E+00 0.000E+00 0.000E+00 0.000E+00 0.000E+00 0.000E+00
BIGSUB   9        0 1990.47420E+04   222.400    50.186  1239.538   213.132    11.932     0.000    12.098     1.345    13.695     1.591     2.169     0.258     0.061     0.003     0.727     0.252     0.004     0.000 .00000E+00 0.000E+00 0.000E+00 0.000E+00 0.000E+00 0.000E+00
BIGSUB  10        0 1990.13380E+04   222.400    50.176  1242.149   206.449     5.448     0.000    17.890     1.172    19.234     6.432     5.680     0.680     0.103     0.004     1.634     0.173     0.003     0.000 .00000E+00 0.000E+00 0.000E+00 0.000E+00 0.000E+00 0.000E+00
BIGSUB  11        0 1990.24060E+04   329.184    90.047  1078.785   232.639    91.727     0.000    36.817     0.955    37.961     1.891     2.545     0.293     0.245     0.006     0.690     0.189     0.003     0.000 .00000E+00 0.000E+00 0.000E+00 0.000E+00 0.000E+00 0.000E+00
BIGSUB  12        0 1990.19770E+04   292.300   105.788  1132.693   257.069    15.648     0.000    57.791     3.012    60.953     2.303     6.198     0.723     0.273     0.012     1.533     0.150     0.003     0.000 .00000E+00 0.000E+00 0.000E+00 0.000E+00 0.000E+00 0.000E+00
BIGSUB  13        0 1990.16410E+04   329.184    90.042  1080.497   231.914    84.350     0.000    38.570     1.427    40.106     1.888     2.823     0.329     0.276     0.006     0.767     0.108     0.003     0.000 .00000E+00 0.000E+00 0.000E+00 0.000E+00 0.000E+00 0.000E+00
BIGSUB  14        0 1990.52740E+04   292.300   105.763  1135.523   256.067    12.335     1.336    54.977     5.624    60.863     2.215     5.133     0.597     0.277     0.011     1.327     0.261     0.004     0.088 .00000E+00 0.000E+00 0.000E+00 0.000E+00 0.000E+00 0.000E+00
BIGSUB  15        0 1990.42200E+03   329.184    90.037  1082.085   234.869    87.937     0.000    35.209     0.919    36.244     1.429     2.023     0.235     0.235     0.006     0.553     0.115     0.002     0.000 .00000E+00 0.000E+00 0.000E+00 0.000E+00 0.000E+00 0.000E+00
BIGSUB  16        0 1990.13850E+04   329.184    90.032  1083.443   237.251    97.946     0.000    30.707     0.583    31.421     0.528     1.063     0.121     0.184     0.006     0.317     0.131     0.002     0.000 .00000E+00 0.000E+00 0.000E+00 0.000E+00 0.000E+00 0.000E+00
BIGSUB  17        0 1990.17180E+04   292.300   105.737  1138.596   213.651     5.986    13.816    82.952    15.361    98.392     2.279     6.073     0.714     0.459     0.018     1.671     0.079     0.002     1.345 .00000E+00 0.000E+00 0.000E+00 0.000E+00 0.000E+00 0.000E+00
BIGSUB  18        0 1990.26090E+04   292.300   105.745  1137.606   275.467    15.591     0.000    38.035     3.601    41.840     0.603     1.715     0.197     0.144     0.009     0.553     0.204     0.003     0.000 .00000E+00 0.000E+00 0.000E+00 0.000E+00 0.000E+00 0.000E+00
BIGSUB  19        0 1990.25380E+04   292.300   105.720  1140.582   256.267    11.946    10.475    48.044    10.201    58.650     3.261     4.904     0.565     0.221     0.009     1.309     0.404     0.006     0.592 .00000E+00 0.000E+00 0.000E+00 0.000E+00 0.000E+00 0.000E+00
BIGSUB  20        0 1990.19820E+04   292.300   105.712  1141.498   252.199    10.691    14.111    48.216    13.108    61.793     3.427     5.462     0.630     0.233     0.009     1.457     0.469     0.008     0.803 .00000E+00 0.000E+00 0.000E+00 0.000E+00 0.000E+00 0.000E+00
BIGSUB   1        0    1.12360E+04    19.100    26.211    17.848     8.518    59.136     0.000     0.292     0.011     0.333     0.011     0.016     0.002     0.002     0.000     0.006     0.031     0.000     0.000 .00000E+00 0.000E+00 0.000E+00 0.000E+00 0.000E+00 0.000E+00
BIGSUB   2        0    1.37400E+03    19.100    26.207    17.919     8.469    59.268     0.000     0.363     0.014     0.525     0.035     0.032     0.004     0.003     0.000     0.012     0.148     0.001     0.000 .00000E+00 0.000E+00 0.000E+00 0.000E+00 0.000E+00 0.000E+00
BIGSUB   3        0    1.14590E+04    19.100    26.211    17.846     8.158    61.032     0.000     0.474     0.024     0.540     0.020     0.030     0.003     0.004     0.000     0.011     0.043     0.000     0.000 .00000E+00 0.000E+00 0.000E+00 0.000E+00 0.000E+00 0.000E+00
BIGSUB   4        0    1.91800E+03    19.100    26.210    17.859     8.379    59.897     0.000     0.397     0.014     0.441     0.015     0.020     0.002     0.003     0.000     0.007     0.030     0.000     0.000 .00000E+00 0.000E+00 0.000E+00 0.000E+00 0.000E+00 0.000E+00
BIGSUB   5        0    1.37770E+04    19.100    26.204    17.975     8.313    61.592     0.000     0.004     0.000     0.031     0.000     0.000     0.000     0.000     0.000     0.000     0.026     0.000     0.000 .00000E+00 0.000E+00 0.000E+00 0.000E+00 0.000E+00 0.000E+00
BIGSUB   6        0    1.18250E+04    19.100    26.198    18.114     8.176    62.325     0.000     0.011     0.000     0.043     0.000     0.000     0.000     0.000     0.000     0.000     0.031     0.000     0.000 .00000E+00 0.000E+00 0.000E+00 0.000E+00 0.000E+00 0.000E+00
BIGSUB   7        0    1.14660E+04    19.100    26.197    18.127     9.128    53.343     0.000     0.178     0.008     0.192     0.000     0.000     0.000     0.004     0.000     0.000     0.006     0.000     0.000 .00000E+00 0.000E+00 0.000E+00 0.000E+00 0.000E+00 0.000E+00
BIGSUB   8        0    1.34940E+04    19.100    26.184    18.396     9.193    51.852     0.000     2.202     0.028     2.262     0.328     0.386     0.045     0.016     0.000     0.105     0.032     0.000     0.000 .00000E+00 0.000E+00 0.000E+00 0.000E+00 0.000E+00 0.000E+00
BIGSUB   9        0    1.47420E+04    34.700    18.450    19.588     4.216    27.210     0.000     0.000     0.000     0.006     0.000     0.000     0.000     0.000     0.000     0.000     0.006     0.000     0.000 .00000E+00 0.000E+00 0.000E+00 0.000E+00 0.000E+00 0.000E+00
BIGSUB  10        0    1.13380E+04    34.700    18.450    19.780     4.363    20.587     0.000     0.000     0.000     0.010     0.000     0.000     0.000     0.000     0.000     0.000     0.009     0.000     0.000 .00000E+00 0.000E+00 0.000E+00 0.000E+00 0.000E+00 0.000E+00
BIGSUB  11        0    1.24060E+04    29.257     2.915    19.324     6.811    87.226     0.000     0.525     0.171     0.718     0.030     0.041     0.005     0.031     0.000     0.011     0.022     0.000     0.000 .00000E+00 0.000E+00 0.000E+00 0.000E+00 0.000E+00 0.000E+00
BIGSUB  12        0    1.19770E+04    38.200     3.825    14.975     3.553    15.920     0.000     0.000     0.000     0.008     0.000     0.000     0.000     0.000     0.000     0.000     0.007     0.000     0.000 .00000E+00 0.000E+00 0.000E+00 0.000E+00 0.000E+00 0.000E+00
BIGSUB  13        0    1.16410E+04    29.257     2.915    19.471     6.076    80.244     0.000     0.855     0.246     1.112     0.034     0.059     0.007     0.045     0.000     0.016     0.010     0.000     0.000 .00000E+00 0.000E+00 0.000E+00 0.000E+00 0.000E+00 0.000E+00
BIGSUB  14        0    1.52740E+04    38.200     3.825    15.072     3.423    12.737     0.000     0.000     0.001     0.011     0.000     0.000     0.000     0.000     0.000     0.000     0.011     0.000     0.000 .00000E+00 0.000E+00 0.000E+00 0.000E+00 0.000E+00 0.000E+00
BIGSUB  15        0    1.42200E+03    29.257     2.915    19.608     6.458    83.647     0.000     0.674     0.126     0.812     0.024     0.038     0.004     0.039     0.000     0.010     0.013     0.000     0.000 .00000E+00 0.000E+00 0.000E+00 0.000E+00 0.000E+00 0.000E+00
BIGSUB  16        0    1.13850E+04    29.257     2.915    19.726     7.661    93.017     0.000     0.124     0.102     0.241     0.002     0.005     0.001     0.012     0.000     0.001     0.015     0.000     0.000 .00000E+00 0.000E+00 0.000E+00 0.000E+00 0.000E+00 0.000E+00
BIGSUB  17        0    1.17180E+04    38.200     3.825    15.271     3.554     6.257     0.000     0.000     0.002     0.006     0.000     0.000     0.000     0.000     0.000     0.000     0.005     0.000     0.000 .00000E+00 0.000E+00 0.000E+00 0.000E+00 0.000E+00 0.000E+00
BIGSUB  18        0    1.26090E+04    38.200     3.825    15.207     3.349    16.067     0.000     0.000     0.001     0.010     0.000     0.000     0.000     0.000     0.000     0.000     0.010     0.000     0.000 .00000E+00 0.000E+00 0.000E+00 0.000E+00 0.000E+00 0.000E+00
BIGSUB  19        0    1.25380E+04    38.200     3.825    15.401     3.471    12.299     0.000     0.000     0.001     0.008     0.000     0.000     0.000     0.000     0.000     0.000     0.007     0.000     0.000 .00000E+00 0.000E+00 0.000E+00 0.000E+00 0.000E+00 0.000E+00
BIGSUB  20        0    1.19820E+04    38.200     3.825    15.461     3.416    11.099     0.000     0.000     0.001     0.009     0.000     0.000     0.000     0.000     0.000     0.000     0.008     0.000     0.000 .00000E+00 0.000E+00 0.000E+00 0.000E+00 0.000E+00 0.000E+00
BIGSUB   1        0    2.12360E+04    41.900    22.300    31.255    19.006    79.708     0.000     2.026     0.056     2.110     0.087     0.143     0.016     0.010     0.000     0.053     0.028     0.000     0.000 .00000E+00 0.000E+00 0.000E+00 0.000E+00 0.000E+00 0.000E+00
BIGSUB   2        0    2.37400E+03    41.900    22.300    31.343    19.199    78.836     0.000     2.548     0.071     2.745     0.238     0.301     0.034     0.013     0.000     0.109     0.126     0.002     0.000 .00000E+00 0.000E+00 0.000E+00 0.000E+00 0.000E+00 0.000E+00
BIGSUB   3        0    2.14590E+04    41.900    22.300    31.253    18.668    80.087     0.000     3.634     0.119     3.790     0.202     0.308     0.035     0.017     0.001     0.114     0.038     0.000     0.000 .00000E+00 0.000E+00 0.000E+00 0.000E+00 0.000E+00 0.000E+00
BIGSUB   4        0    2.91800E+03    41.900    22.300    31.268    18.876    79.866     0.000     2.720     0.070     2.817     0.107     0.183     0.021     0.013     0.001     0.068     0.027     0.000     0.000 .00000E+00 0.000E+00 0.000E+00 0.000E+00 0.000E+00 0.000E+00
BIGSUB   5        0    2.37770E+04    41.900    22.300    31.412    19.172    84.235     0.000     0.009     0.004     0.037     0.000     0.000     0.000     0.000     0.000     0.000     0.023     0.000     0.000 .00000E+00 0.000E+00 0.000E+00 0.000E+00 0.000E+00 0.000E+00
BIGSUB   6        0    2.18250E+04    41.900    22.300    31.584    19.051    85.084     0.000     0.014     0.004     0.044     0.005     0.003     0.000     0.000     0.000     0.001     0.026     0.000     0.000 .00000E+00 0.000E+00 0.000E+00 0.000E+00 0.000E+00 0.000E+00
BIGSUB   7        0    2.14660E+04    41.900    22.300    31.601    18.222    75.616     0.000     0.822     0.059     0.886     0.039     0.073     0.009     0.005     0.000     0.020     0.006     0.000     0.000 .00000E+00 0.000E+00 0.000E+00 0.000E+00 0.000E+00 0.000E+00
[...]
BIGSUB   9        0   11.47420E+04     2.800     0.100    49.054     3.950     6.042     0.000     0.000     0.004     0.014     0.000     0.000     0.000     0.000     0.000     0.000     0.010     0.000     0.000 .00000E+00 0.000E+00 0.000E+00 0.000E+00 0.000E+00 0.000E+00
BIGSUB  10        0   11.13380E+04     2.800     0.100    49.482     3.606     1.898     0.000     0.000     0.009     0.027     0.000     0.000     0.000     0.000     0.000     0.000     0.018     0.000     0.000 .00000E+00 0.000E+00 0.000E+00 0.000E+00 0.000E+00 0.000E+00
BIGSUB  11        0   11.24060E+04    16.200     0.700    40.148    14.109    15.544     0.000     0.000     0.103     0.127     0.000     0.000     0.000     0.000     0.000     0.000     0.024     0.000     0.000 .00000E+00 0.000E+00 0.000E+00 0.000E+00 0.000E+00 0.000E+00
BIGSUB  12        0   11.19770E+04    26.800     0.400    40.453    15.926    20.628     0.000     0.000     0.031     0.049     0.000     0.000     0.000     0.000     0.000     0.000     0.017     0.000     0.000 .00000E+00 0.000E+00 0.000E+00 0.000E+00 0.000E+00 0.000E+00
BIGSUB  13        0   11.16410E+04    16.200     0.700    40.418    15.265     9.306     0.000     0.000     0.133     0.149     0.000     0.000     0.000     0.000     0.000     0.000     0.016     0.000     0.000 .00000E+00 0.000E+00 0.000E+00 0.000E+00 0.000E+00 0.000E+00
BIGSUB  14        0   11.52740E+04    26.800     0.400    40.922    16.568    17.451     0.000     0.000     0.082     0.115     0.000     0.000     0.000     0.000     0.000     0.000     0.032     0.001     0.000 .00000E+00 0.000E+00 0.000E+00 0.000E+00 0.000E+00 0.000E+00
BIGSUB  15        0   11.42200E+03    16.200     0.700    40.671    14.705    12.057     0.000     0.000     0.129     0.144     0.000     0.000     0.000     0.000     0.000     0.000     0.015     0.000     0.000 .00000E+00 0.000E+00 0.000E+00 0.000E+00 0.000E+00 0.000E+00
BIGSUB  16        0   11.13850E+04    16.200     0.700    40.888    13.234    20.178     0.000     0.000     0.096     0.114     0.000     0.000     0.000     0.000     0.000     0.000     0.018     0.000     0.000 .00000E+00 0.000E+00 0.000E+00 0.000E+00 0.000E+00 0.000E+00
BIGSUB  17        0   11.17180E+04    26.800     0.400    41.403    17.705    11.824     0.000     0.000     0.106     0.117     0.000     0.000     0.000     0.000     0.000     0.000     0.011     0.000     0.000 .00000E+00 0.000E+00 0.000E+00 0.000E+00 0.000E+00 0.000E+00
BIGSUB  18        0   11.26090E+04    26.800     0.400    41.247    16.157    20.351     0.000     0.000     0.076     0.105     0.000     0.000     0.000     0.000     0.000     0.000     0.028     0.001     0.000 .00000E+00 0.000E+00 0.000E+00 0.000E+00 0.000E+00 0.000E+00
BIGSUB  19        0   11.25380E+04    26.800     0.400    41.717    16.800    16.991     0.000     0.000     0.098     0.127     0.000     0.000     0.000     0.000     0.000     0.000     0.028     0.000     0.000 .00000E+00 0.000E+00 0.000E+00 0.000E+00 0.000E+00 0.000E+00
BIGSUB  20        0   11.19820E+04    26.800     0.400    41.862    17.037    15.796     0.000     0.000     0.120     0.158     0.000     0.000     0.000     0.000     0.000     0.000     0.038     0.001     0.000 .00000E+00 0.000E+00 0.000E+00 0.000E+00 0.000E+00 0.000E+00
BIGSUB   1        0   12.12360E+04     0.100     0.000    28.389     0.563     3.733     0.000     0.000     0.000     0.008     0.000     0.000     0.000     0.000     0.000     0.000     0.008     0.000     0.000 .00000E+00 0.000E+00 0.000E+00 0.000E+00 0.000E+00 0.000E+00
BIGSUB   2        0   12.37400E+03     0.100     0.000    28.516     0.579     4.150     0.000     0.000     0.000     0.015     0.000     0.000     0.000     0.000     0.000     0.000     0.015     0.000     0.000 .00000E+00 0.000E+00 0.000E+00 0.000E+00 0.000E+00 0.000E+00
BIGSUB   3        0   12.14590E+04     0.100     0.000    28.386     0.640     5.126     0.000     0.000     0.000     0.019     0.000     0.000     0.000     0.000     0.000     0.000     0.019     0.000     0.000 .00000E+00 0.000E+00 0.000E+00 0.000E+00 0.000E+00 0.000E+00
BIGSUB   4        0   12.91800E+03     0.100     0.000    28.408     0.593     4.288     0.000     0.000     0.000     0.009     0.000     0.000     0.000     0.000     0.000     0.000     0.009     0.000     0.000 .00000E+00 0.000E+00 0.000E+00 0.000E+00 0.000E+00 0.000E+00
BIGSUB   5        0   12.37770E+04     0.100     0.000    28.615     0.636     5.150     0.000     0.000     0.000     0.009     0.000     0.000     0.000     0.000     0.000     0.000     0.009     0.000     0.000 .00000E+00 0.000E+00 0.000E+00 0.000E+00 0.000E+00 0.000E+00
BIGSUB   6        0   12.18250E+04     0.100     0.000    28.862     0.654     5.621     0.000     0.000     0.000     0.014     0.000     0.000     0.000     0.000     0.000     0.000     0.014     0.000     0.000 .00000E+00 0.000E+00 0.000E+00 0.000E+00 0.000E+00 0.000E+00
BIGSUB   7        0   12.14660E+04     0.100     0.000    28.885     0.355     0.782     0.000     0.000     0.000     0.006     0.000     0.000     0.000     0.000     0.000     0.000     0.006     0.000     0.000 .00000E+00 0.000E+00 0.000E+00 0.000E+00 0.000E+00 0.000E+00
BIGSUB   8        0   12.34940E+04     0.100     0.000    29.363     0.367     1.331     0.000     0.000     0.000     0.010     0.000     0.000     0.000     0.000     0.000     0.000     0.009     0.000     0.000 .00000E+00 0.000E+00 0.000E+00 0.000E+00 0.000E+00 0.000E+00
BIGSUB   9        0   12.47420E+04     0.000     0.000    26.677     0.463     5.580     0.000     0.000     0.001     0.010     0.000     0.000     0.000     0.000     0.000     0.000     0.009     0.000     0.000 .00000E+00 0.000E+00 0.000E+00 0.000E+00 0.000E+00 0.000E+00
BIGSUB  10        0   12.13380E+04     0.000     0.000    26.965     0.221     1.678     0.000     0.000     0.002     0.018     0.000     0.000     0.000     0.000     0.000     0.000     0.016     0.000     0.000 .00000E+00 0.000E+00 0.000E+00 0.000E+00 0.000E+00 0.000E+00
BIGSUB  11        0   12.24060E+04     9.200     8.848    21.307     5.148    19.597     0.000     0.000     0.040     0.061     0.000     0.000     0.000     0.000     0.000     0.000     0.021     0.000     0.000 .00000E+00 0.000E+00 0.000E+00 0.000E+00 0.000E+00 0.000E+00
BIGSUB  12        0   12.19770E+04     6.300     6.300    21.840     5.152    20.583     0.000     1.055     0.021     1.092     0.004     0.012     0.001     0.013     0.000     0.003     0.016     0.000     0.000 .00000E+00 0.000E+00 0.000E+00 0.000E+00 0.000E+00 0.000E+00
BIGSUB  13        0   12.16410E+04     9.200     8.845    21.484     5.517    12.989     0.000     0.000     0.052     0.067     0.000     0.000     0.000     0.000     0.000     0.000     0.015     0.000     0.000 .00000E+00 0.000E+00 0.000E+00 0.000E+00 0.000E+00 0.000E+00
BIGSUB  14        0   12.52740E+04     6.300     6.300    22.153     5.737    18.014     0.000     0.000     0.032     0.061     0.000     0.000     0.000     0.000     0.000     0.000     0.029     0.001     0.000 .00000E+00 0.000E+00 0.000E+00 0.000E+00 0.000E+00 0.000E+00
BIGSUB  15        0   12.42200E+03     9.200     8.843    21.650     5.455    15.802     0.000     0.000     0.050     0.064     0.000     0.000     0.000     0.000     0.000     0.000     0.014     0.000     0.000 .00000E+00 0.000E+00 0.000E+00 0.000E+00 0.000E+00 0.000E+00
BIGSUB  16        0   12.13850E+04     9.200     8.840    21.792     4.944    24.435     0.000     0.000     0.037     0.053     0.000     0.000     0.000     0.000     0.000     0.000     0.016     0.000     0.000 .00000E+00 0.000E+00 0.000E+00 0.000E+00 0.000E+00 0.000E+00
BIGSUB  17        0   12.17180E+04     6.300     6.300    22.474     7.080    11.044     0.000     0.000     0.041     0.051     0.000     0.000     0.000     0.000     0.000     0.000     0.010     0.000     0.000 .00000E+00 0.000E+00 0.000E+00 0.000E+00 0.000E+00 0.000E+00
BIGSUB  18        0   12.26090E+04     6.300     6.300    22.370     4.785    21.865     0.000     0.000     0.030     0.055     0.000     0.000     0.000     0.000     0.000     0.000     0.026     0.001     0.000 .00000E+00 0.000E+00 0.000E+00 0.000E+00 0.000E+00 0.000E+00
BIGSUB  19        0   12.25380E+04     6.300     6.300    22.684     6.223    17.068     0.000     0.000     0.038     0.058     0.000     0.000     0.000     0.000     0.000     0.000     0.020     0.000     0.000 .00000E+00 0.000E+00 0.000E+00 0.000E+00 0.000E+00 0.000E+00
BIGSUB  20        0   12.19820E+04     6.300     6.300    22.781     6.650    15.447     0.000     0.000     0.046     0.074     0.000     0.000     0.000     0.000     0.000     0.000     0.027     0.001     0.000 .00000E+00 0.000E+00 0.000E+00 0.000E+00 0.000E+00 0.000E+00
BIGSUB   1        0 1995.12360E+04   161.600    12.700  1327.657   230.532     3.733     0.000     1.262     0.289     1.900     0.275     0.318     0.036     0.011     0.000     0.083     0.349     0.004     0.000 .00000E+00 0.000E+00 0.000E+00 0.000E+00 0.000E+00 0.000E+00
BIGSUB   2        0 1995.37400E+03   161.600    12.700  1328.916   229.252     4.150     0.000     0.997     0.255     2.521     0.695     0.434     0.049     0.009     0.000     0.114     1.270     0.010     0.000 .00000E+00 0.000E+00 0.000E+00 0.000E+00 0.000E+00 0.000E+00
BIGSUB   3        0 1995.14590E+04   161.600    12.700  1327.630   231.769     5.126     0.000     0.669     0.204     1.446     0.426     0.283     0.032     0.006     0.000     0.074     0.572     0.009     0.000 .00000E+00 0.000E+00 0.000E+00 0.000E+00 0.000E+00 0.000E+00
BIGSUB   4        0 1995.91800E+03   161.600    12.700  1327.848   231.097     4.288     0.000     1.043     0.222     1.623     0.409     0.332     0.038     0.009     0.000     0.087     0.358     0.005     0.000 .00000E+00 0.000E+00 0.000E+00 0.000E+00 0.000E+00 0.000E+00
BIGSUB   5        0 1995.37770E+04   161.600    12.700  1329.891   231.241     5.150     0.000     0.624     0.316     1.276     0.160     0.174     0.020     0.006     0.000     0.046     0.336     0.002     0.000 .00000E+00 0.000E+00 0.000E+00 0.000E+00 0.000E+00 0.000E+00
BIGSUB   6        0 1995.18250E+04   161.600    12.700  1332.320   231.358     5.621     0.000     0.345     0.283     1.118     0.187     0.082     0.010     0.001     0.000     0.022     0.491     0.003     0.000 .00000E+00 0.000E+00 0.000E+00 0.000E+00 0.000E+00 0.000E+00
BIGSUB   7        0 1995.14660E+04   161.600    12.700  1332.547   218.994     0.782     0.000     5.509     1.296     6.909     0.412     0.801     0.093     0.051     0.001     0.225     0.103     0.002     0.000 .00000E+00 0.000E+00 0.000E+00 0.000E+00 0.000E+00 0.000E+00
BIGSUB   8        0 1995.34940E+04   161.600    12.700  1337.203   224.228     1.331     0.000     3.632     0.979     4.997     1.121     0.913     0.105     0.035     0.001     0.249     0.387     0.004     0.000 .00000E+00 0.000E+00 0.000E+00 0.000E+00 0.000E+00 0.000E+00
BIGSUB   9        0 1995.47420E+04   242.400     3.200  1236.306   327.520     5.580     0.000     5.497     1.277     7.130     0.589     0.732     0.084     0.030     0.001     0.194     0.356     0.004     0.000 .00000E+00 0.000E+00 0.000E+00 0.000E+00 0.000E+00 0.000E+00
BIGSUB  10        0 1995.13380E+04   242.400     3.200  1239.122   294.901     1.678     0.411    22.179     2.783    25.279     4.038     3.311     0.386     0.136     0.003     0.926     0.317     0.006     0.000 .00000E+00 0.000E+00 0.000E+00 0.000E+00 0.000E+00 0.000E+00
BIGSUB  11        0 1995.24060E+04   405.500    30.734  1064.002   389.286    19.597    47.877    93.635    55.762   149.815     8.202     9.399     1.056     0.563     0.016     2.552     0.418     0.006     4.496 .00000E+00 0.000E+00 0.000E+00 0.000E+00 0.000E+00 0.000E+00
BIGSUB  12        0 1995.19770E+04   378.900    14.100  1131.288   411.330    20.583    10.739    50.610    14.188    65.068     2.008     5.007     0.570     0.359     0.011     1.220     0.271     0.004     1.098 .00000E+00 0.000E+00 0.000E+00 0.000E+00 0.000E+00 0.000E+00
BIGSUB  13        0 1995.16410E+04   405.500    30.729  1065.792   337.021    12.989    68.804    85.655    86.020   171.901     7.651     8.597     0.980     0.466     0.013     2.319     0.226     0.004     3.299 .00000E+00 0.000E+00 0.000E+00 0.000E+00 0.000E+00 0.000E+00
BIGSUB  14        0 1995.52740E+04   378.900    14.100  1134.448   383.119    18.014    36.828    49.154    36.991    86.690     3.004     5.187     0.589     0.312     0.010     1.331     0.545     0.014     3.604 .00000E+00 0.000E+00 0.000E+00 0.000E+00 0.000E+00 0.000E+00
BIGSUB  15        0 1995.42200E+03   405.500    30.725  1067.453   358.296    15.802    65.197    82.410    78.614   161.277     5.802     6.953     0.790     0.463     0.015     1.894     0.253     0.004     3.620 .00000E+00 0.000E+00 0.000E+00 0.000E+00 0.000E+00 0.000E+00
BIGSUB  16        0 1995.13850E+04   405.500    30.721  1068.874   427.855    24.435    47.358    83.505    50.474   134.283     2.793     5.206     0.579     0.510     0.019     1.539     0.305     0.005     5.173 .00000E+00 0.000E+00 0.000E+00 0.000E+00 0.000E+00 0.000E+00
BIGSUB  17        0 1995.17180E+04   378.900    14.100  1137.737   323.443    11.044    52.248    78.829    51.082   130.058     3.261     6.385     0.737     0.514     0.014     1.746     0.148     0.003     2.399 .00000E+00 0.000E+00 0.000E+00 0.000E+00 0.000E+00 0.000E+00
BIGSUB  18        0 1995.26090E+04   378.900    14.100  1136.678   413.176    21.865    33.415    31.052    32.507    64.006     0.729     1.915     0.214     0.166     0.009     0.606     0.447     0.013     3.986 .00000E+00 0.000E+00 0.000E+00 0.000E+00 0.000E+00 0.000E+00
BIGSUB  19        0 1995.25380E+04   378.900    14.100  1139.865   383.347    17.068    49.597    41.178    44.538    86.464     3.972     4.328     0.482     0.240     0.008     1.140     0.748     0.012     3.067 .00000E+00 0.000E+00 0.000E+00 0.000E+00 0.000E+00 0.000E+00
BIGSUB  20        0 1995.19820E+04   378.900    14.100  1140.847   373.150    15.447    60.804    38.714    54.371    94.014     3.933     4.552     0.508     0.237     0.007     1.177     0.928     0.020     2.953 .00000E+00 0.000E+00 0.000E+00 0.000E+00 0.000E+00 0.000E+00
BIGSUB   1        0  6.0.12360E+04   303.383    57.269  1268.258   283.222     3.733     7.521    16.561     7.390    24.490     1.416     1.924     0.221     0.124     0.003     0.524     0.540     0.006     0.591 .00000E+00 0.000E+00 0.000E+00 0.000E+00 0.000E+00 0.000E+00
BIGSUB   2        0  6.0.37400E+03   303.383    57.265  1269.365   283.876     4.150     5.611    15.964     5.745    24.157     3.859     2.994     0.342     0.118     0.003     0.831     2.448     0.024     0.423 .00000E+00 0.000E+00 0.000E+00 0.000E+00 0.000E+00 0.000E+00
BIGSUB   3        0  6.0.14590E+04   303.383    57.269  1268.234   289.553     5.126     4.424    13.419     4.653    18.863     2.215     2.049     0.234     0.086     0.003     0.592     0.790     0.011     0.363 .00000E+00 0.000E+00 0.000E+00 0.000E+00 0.000E+00 0.000E+00
BIGSUB   4        0  6.0.91800E+03   303.383    57.268  1268.426   285.839     4.288     6.290    15.491     6.131    22.160     1.937     2.015     0.231     0.109     0.003     0.556     0.538     0.006     0.502 .00000E+00 0.000E+00 0.000E+00 0.000E+00 0.000E+00 0.000E+00
BIGSUB   5        0  6.0.37770E+04   303.383    57.262  1270.224   286.699     5.150     3.673    16.330     4.973    21.798     1.157     1.950     0.225     0.133     0.004     0.523     0.494     0.005     0.286 .00000E+00 0.000E+00 0.000E+00 0.000E+00 0.000E+00 0.000E+00
BIGSUB   6        0  6.0.18250E+04   303.383    57.255  1272.359   288.618     5.621     1.106    16.459     3.169    20.297     3.073     2.310     0.275     0.112     0.003     0.653     0.669     0.006     0.070 .00000E+00 0.000E+00 0.000E+00 0.000E+00 0.000E+00 0.000E+00
BIGSUB   7        0  6.0.14660E+04   303.383    57.254  1272.558   255.846     0.782    11.882    36.497    13.971    50.572     1.450     3.120     0.366     0.275     0.007     0.859     0.105     0.002     1.468 .00000E+00 0.000E+00 0.000E+00 0.000E+00 0.000E+00 0.000E+00
BIGSUB   8        0  6.0.34940E+04   303.383    57.241  1276.548   261.958     1.331     9.054    34.493     9.992    45.060     4.789     4.840     0.553     0.275     0.005     1.251     0.574     0.007     0.915 .00000E+00 0.000E+00 0.000E+00 0.000E+00 0.000E+00 0.000E+00
BIGSUB   9        0  6.0.47420E+04   314.517    50.058  1179.736   291.410     5.580     3.242    20.871     4.648    25.885     1.771     2.590     0.300     0.106     0.004     0.775     0.367     0.004     0.440 .00000E+00 0.000E+00 0.000E+00 0.000E+00 0.000E+00 0.000E+00
BIGSUB  10        0  6.0.13380E+04   314.517    50.048  1182.225   264.150     1.678     7.310    43.712     8.079    52.047     8.240     7.740     0.904     0.234     0.007     2.138     0.255     0.005     1.196 .00000E+00 0.000E+00 0.000E+00 0.000E+00 0.000E+00 0.000E+00
BIGSUB  11        0  6.0.24060E+04   455.389   117.536  1078.440   337.522    19.597    20.287    95.913    20.215   116.437     5.233     6.494     0.736     0.576     0.015     1.748     0.309     0.004     1.444 .00000E+00 0.000E+00 0.000E+00 0.000E+00 0.000E+00 0.000E+00
BIGSUB  12        0  6.0.19770E+04   397.183    84.341  1088.035   327.454    20.583     5.582    66.061     8.232    74.483     1.664     4.795     0.548     0.335     0.014     1.152     0.190     0.003     0.676 .00000E+00 0.000E+00 0.000E+00 0.000E+00 0.000E+00 0.000E+00
BIGSUB  13        0  6.0.16410E+04   455.389   117.527  1080.193   303.752    12.989    39.364   110.236    37.113   147.504     5.520     7.499     0.859     0.676     0.016     2.010     0.155     0.003     1.892 .00000E+00 0.000E+00 0.000E+00 0.000E+00 0.000E+00 0.000E+00
BIGSUB  14        0  6.0.52740E+04   397.183    84.285  1090.868   319.867    18.014    16.314    61.513    17.929    79.809     2.439     5.071     0.578     0.327     0.012     1.281     0.366     0.008     1.870 .00000E+00 0.000E+00 0.000E+00 0.000E+00 0.000E+00 0.000E+00
BIGSUB  15        0  6.0.42200E+03   455.389   117.519  1081.820   318.635    15.802    35.467   100.370    32.763   133.316     3.927     5.426     0.622     0.602     0.017     1.470     0.183     0.003     1.718 .00000E+00 0.000E+00 0.000E+00 0.000E+00 0.000E+00 0.000E+00
BIGSUB  16        0  6.0.13850E+04   455.389   117.512  1083.211   366.683    24.435    15.520    72.081    15.506    87.809     1.379     2.693     0.303     0.394     0.015     0.796     0.223     0.003     1.576 .00000E+00 0.000E+00 0.000E+00 0.000E+00 0.000E+00 0.000E+00
BIGSUB  17        0  6.0.17180E+04   397.183    84.266  1093.812   270.608    11.044    33.733    92.690    32.773   125.567     2.798     6.401     0.743     0.494     0.017     1.742     0.104     0.002     2.158 .00000E+00 0.000E+00 0.000E+00 0.000E+00 0.000E+00 0.000E+00
BIGSUB  18        0  6.0.26090E+04   397.183    84.272  1092.864   343.381    21.865    12.543    43.066    13.753    57.106     0.607     1.738     0.194     0.207     0.011     0.540     0.287     0.006     1.847 .00000E+00 0.000E+00 0.000E+00 0.000E+00 0.000E+00 0.000E+00
BIGSUB  19        0  6.0.25380E+04   397.183    84.253  1095.715   319.992    17.068    28.293    52.037    25.464    78.090     3.469     4.500     0.506     0.274     0.010     1.174     0.589     0.008     1.809 .00000E+00 0.000E+00 0.000E+00 0.000E+00 0.000E+00 0.000E+00
BIGSUB  20        0  6.0.19820E+04   397.183    84.248  1096.593   311.636    15.447    35.578    52.855    31.710    85.266     3.659     5.065     0.570     0.279     0.010     1.326     0.702     0.012     1.950 .00000E+00 0.000E+00 0.000E+00 0.000E+00 0.000E+00 0.000E+00
