1
    SWAT Dec 23 2016    VER 2016/Rev 664                                                                 0/ 0/   0      0: 0: 0

    General Input/Output section (file.cio):                                        
    11/14/2011 12:00:00 AM ARCGIS-SWAT interface AV                                 
                                                                                    


LULC  HRU       GIS  SUB  MGT  MON   AREAkm2  PRECIPmm SNOFALLmm SNOMELTmm     IRRmm     PETmm      ETmm SW_INITmm  SW_ENDmm    PERCmm GW_RCHGmm DA_RCHGmm   REVAPmm  SA_IRRmm  DA_IRRmm   SA_STmm   DA_STmmSURQ_GENmmSURQ_CNTmm   TLOSSmm LATQGENmm    GW_Qmm    WYLDmm   DAILYCN TMP_AVdgC TMP_MXdgC TMP_MNdgCSOL_TMPdgCSOLARMJ/m2  SYLDt/ha  USLEt/haN_APPkg/haP_APPkg/haNAUTOkg/haPAUTOkg/ha NGRZkg/ha PGRZkg/haNCFRTkg/haPCFRTkg/haNRAINkg/ha NFIXkg/ha F-MNkg/ha A-MNkg/ha A-SNkg/ha F-MPkg/haAO-LPkg/ha L-APkg/ha A-SPkg/ha DNITkg/ha  NUPkg/ha  PUPkg/ha ORGNkg/ha ORGPkg/ha SEDPkg/haNSURQkg/haNLATQkg/ha NO3Lkg/haNO3GWkg/ha SOLPkg/ha P_GWkg/ha    W_STRS  TMP_STRS    N_STRS    P_STRS  BIOMt/ha       LAI   YLDt/ha  BACTPct   BACTLPct WTAB CLIm WTAB SOLm     SNOmm CMUPkg/haCMTOTkg/ha   QTILEmm TNO3kg/ha LNO3kg/ha  GW_Q_Dmm LATQCNTmm TVAPkg/ha
GRAS    1 000010001    1    0    1.79547E+03    51.400    23.400    11.225     0.000    15.052     7.411    63.948    66.346     0.000     0.073     0.004     0.000     0.000     0.000     0.055  1001.620     0.721     0.478     0.244     0.090     0.036     0.603    93.968    -5.811    -1.742    -9.881    -2.812     1.992     0.002     0.000     0.000     0.000     0.000     0.000     0.000     0.000     0.000     0.000     0.392     0.000     0.649     0.199    -0.070     0.043     0.034     0.082     0.088     0.000     0.000     0.000     0.004     0.000     0.001     0.010     0.001     0.000     0.000     0.000     0.000     0.000     0.000     0.000     0.000     0.000     0.000     0.000 .00000E+00 .00000E+00 0.140E+00 0.600E+04 0.122E+02 0.000E+00 0.000E+00 0.000E+00 0.000E+00 0.908E-03     0.000     0.090     0.000
GRAS    2 000010002    1    0    1.44053E+03    51.400    23.400    11.225     0.000    15.052     7.582    71.718    74.467     0.000     0.044     0.002     0.000     0.000     0.000     0.534  1000.085     0.193     0.052     0.141     0.024     0.024     0.100    89.585    -5.811    -1.742    -9.881    -3.998     1.992     0.000     0.000     0.000     0.000     0.000     0.000     0.000     0.000     0.000     0.000     0.392     0.000     0.649     0.106    -0.036     0.043     0.018     0.062     0.066     0.000     0.000     0.000     0.000     0.000     0.000     0.002     0.000     0.000     0.000     0.000     0.000     0.000     0.000     0.000     0.000     0.000     0.000     0.000 .00000E+00 .00000E+00 0.140E+00 0.600E+04 0.122E+02 0.000E+00 0.000E+00 0.000E+00 0.000E+00 0.307E-03     0.000     0.024     0.000
GRAS    3 000020001    2    0    1.20650E+03    51.400    23.400    11.225     0.000    15.113     7.414    62.613    64.960     0.000     0.082     0.004     0.000     0.000     0.000     0.061  1001.440     0.700     0.404     0.296     0.682     0.030     1.116    93.879    -5.811    -1.742    -9.881    -2.760     2.000     0.010     0.000     0.000     0.000     0.000     0.000     0.000     0.000     0.000     0.000     0.392     0.000     0.645     0.197    -0.070     0.043     0.034     0.083     0.095     0.000     0.000     0.000     0.016     0.002     0.004     0.010     0.007     0.000     0.000     0.000     0.000     0.000     0.000     0.000     0.000     0.000     0.000     0.000 .00000E+00 .00000E+00 0.141E+00 0.600E+04 0.122E+02 0.000E+00 0.000E+00 0.000E+00 0.000E+00 0.742E-02     0.000     0.682     0.000
GRAS    4 000020002    2    0    1.16750E+03    51.400    23.400    11.225     0.000    15.113     7.744    71.524    74.127     0.000     0.050     0.002     0.000     0.000     0.000     0.538  1000.114     0.206     0.038     0.168     0.049     0.023     0.109    89.712    -5.811    -1.742    -9.881    -3.994     2.000     0.000     0.000     0.000     0.000     0.000     0.000     0.000     0.000     0.000     0.000     0.392     0.000     0.643     0.134    -0.050     0.043     0.023     0.067     0.074     0.000     0.000     0.000     0.000     0.000     0.000     0.003     0.001     0.000     0.000     0.000     0.000     0.000     0.000     0.000     0.000     0.000     0.000     0.000 .00000E+00 .00000E+00 0.141E+00 0.600E+04 0.122E+02 0.000E+00 0.000E+00 0.000E+00 0.000E+00 0.597E-03     0.000     0.049     0.000
GRAS    5 000030001    3    0    1.49718E+03    51.400    23.400    11.225     0.000    15.050     7.408    63.797    66.189     0.000     0.079     0.004     0.000     0.000     0.000     0.059  1001.585     0.719     0.439     0.280     0.146     0.031     0.615    93.958    -5.811    -1.742    -9.881    -2.806     1.992     0.015     0.000     0.000     0.000     0.000     0.000     0.000     0.000     0.000     0.000     0.392     0.000     0.649     0.198    -0.070     0.043     0.034     0.084     0.096     0.000     0.000     0.000     0.024     0.003     0.006     0.010     0.001     0.000     0.000     0.000     0.000     0.000     0.000     0.000     0.000     0.000     0.000     0.000 .00000E+00 .00000E+00 0.140E+00 0.600E+04 0.122E+02 0.000E+00 0.000E+00 0.000E+00 0.000E+00 0.145E-02     0.000     0.146     0.000
GRAS    6 000030002    3    0    1.96182E+03    51.400    23.400    11.225     0.000    15.050     7.580    71.636    74.378     0.000     0.046     0.002     0.000     0.000     0.000     0.535  1000.103     0.193     0.059     0.134     0.050     0.031     0.139    89.585    -5.811    -1.742    -9.881    -3.997     1.992     0.000     0.000     0.000     0.000     0.000     0.000     0.000     0.000     0.000     0.000     0.392     0.000     0.649     0.106    -0.037     0.043     0.018     0.062     0.067     0.000     0.000     0.000     0.000     0.000     0.000     0.002     0.001     0.000     0.000     0.000     0.000     0.000     0.000     0.000     0.000     0.000     0.000     0.000 .00000E+00 .00000E+00 0.140E+00 0.600E+04 0.122E+02 0.000E+00 0.000E+00 0.000E+00 0.000E+00 0.598E-03     0.000     0.050     0.000
GRAS    7 000040001    4    0    1.47980E+03    51.400    23.400    11.225     0.000    15.061     7.415    63.897    66.292     0.000     0.073     0.004     0.000     0.000     0.000     0.054  1001.576     0.721     0.462     0.259     0.103     0.028     0.593    93.964    -5.811    -1.742    -9.881    -2.810     1.993     0.015     0.000     0.000     0.000     0.000     0.000     0.000     0.000     0.000     0.000     0.392     0.000     0.649     0.198    -0.070     0.043     0.034     0.083     0.092     0.000     0.000     0.000     0.026     0.003     0.007     0.010     0.001     0.000     0.000     0.000     0.000     0.000     0.000     0.000     0.000     0.000     0.000     0.000 .00000E+00 .00000E+00 0.140E+00 0.600E+04 0.122E+02 0.000E+00 0.000E+00 0.000E+00 0.000E+00 0.104E-02     0.000     0.103     0.000
GRAS    8 000040002    4    0    1.43820E+03    51.400    23.400    11.225     0.000    15.061     7.586    71.712    74.459     0.000     0.045     0.002     0.000     0.000     0.000     0.534  1000.083     0.193     0.046     0.147     0.022     0.023     0.091    89.585    -5.811    -1.742    -9.881    -3.998     1.993     0.000     0.000     0.000     0.000     0.000     0.000     0.000     0.000     0.000     0.000     0.392     0.000     0.649     0.106    -0.036     0.043     0.018     0.062     0.066     0.000     0.000     0.000     0.000     0.000     0.000     0.002     0.000     0.000     0.000     0.000     0.000     0.000     0.000     0.000     0.000     0.000     0.000     0.000 .00000E+00 .00000E+00 0.140E+00 0.600E+04 0.122E+02 0.000E+00 0.000E+00 0.000E+00 0.000E+00 0.282E-03     0.000     0.022     0.000
GRAS    9 000050001    5    0    1.12663E+04    51.400    23.400    11.225     0.000    15.160     7.457    63.766    66.146     0.000     0.096     0.005     0.000     0.000     0.000     0.073  1001.682     0.718     0.396     0.322     0.099     0.047     0.542    93.955    -5.811    -1.742    -9.881    -2.804     2.006     0.000     0.000     0.000     0.000     0.000     0.000     0.000     0.000     0.000     0.000     0.392     0.000     0.648     0.198    -0.070     0.043     0.034     0.082     0.090     0.000     0.000     0.000     0.000     0.000     0.000     0.010     0.001     0.000     0.000     0.000     0.000     0.000     0.000     0.000     0.000     0.000     0.000     0.000 .00000E+00 .00000E+00 0.141E+00 0.600E+04 0.122E+02 0.000E+00 0.000E+00 0.000E+00 0.000E+00 0.994E-03     0.000     0.099     0.000
GRAS   10 000050002    5    0    1.25107E+04    51.400    23.400    11.225     0.000    15.160     7.752    71.361    73.759     0.000     0.080     0.004     0.000     0.000     0.000     0.538  1000.290     0.476     0.256     0.220     0.031     0.060     0.347    91.747    -5.811    -1.742    -9.881    -3.675     2.006     0.000     0.000     0.000     0.000     0.000     0.000     0.000     0.000     0.000     0.000     0.392     0.000     0.615     0.133    -0.048     0.041     0.023     0.066     0.073     0.000     0.000     0.000     0.000     0.000     0.000     0.006     0.000     0.000     0.000     0.000     0.000     0.000     0.000     0.000     0.000     0.000     0.000     0.000 .00000E+00 .00000E+00 0.141E+00 0.600E+04 0.122E+02 0.000E+00 0.000E+00 0.000E+00 0.000E+00 0.369E-03     0.000     0.031     0.000
CRWO   11 000060001    6    0    1.29142E+03    51.400    23.400    11.225     0.000    15.279     7.590    57.758    59.869     0.000     0.118     0.006     0.000     0.000     0.000     0.493  1000.326     0.976     0.554     0.422     0.029     0.046     0.629    94.212    -5.811    -1.742    -9.881    -3.525     2.022     0.000     0.000     0.000     0.000     0.000     0.000     0.000     0.000     0.000     0.000     0.392     0.000     0.000     0.187    -0.070     0.000     0.032     0.039     0.067     0.000     0.000     0.000     0.000     0.000     0.000     0.004     0.000     0.000     0.000     0.000     0.000     0.000    31.000     0.000     0.000     0.322     0.000     0.000 .00000E+00 .00000E+00 0.143E+00 0.600E+04 0.122E+02 0.000E+00 0.000E+00 0.000E+00 0.000E+00 0.165E-03     0.000     0.029     0.000
GRAS   12 000060002    6    0    1.15336E+04    51.400    23.400    11.225     0.000    15.279     7.803    71.101    73.473     0.000     0.082     0.004     0.000     0.000     0.000     0.426  1000.351     0.473     0.261     0.212     0.066     0.068     0.394    91.735    -5.811    -1.742    -9.881    -3.667     2.022     0.000     0.000     0.000     0.000     0.000     0.000     0.000     0.000     0.000     0.000     0.392     0.000     0.613     0.133    -0.048     0.041     0.023     0.066     0.073     0.000     0.000     0.000     0.000     0.000     0.000     0.006     0.001     0.000     0.000     0.000     0.000     0.000     0.000     0.000     0.000     0.000     0.000     0.000 .00000E+00 .00000E+00 0.143E+00 0.600E+04 0.122E+02 0.000E+00 0.000E+00 0.000E+00 0.000E+00 0.799E-03     0.000     0.066     0.000
GRAS   13 000070001    7    0    1.14660E+04    51.400    23.400    11.225     0.000    15.290     7.508    60.378    62.068     0.000     0.174     0.009     0.000     0.000     0.000     0.121  1001.083     1.717     1.280     0.433     0.008     0.121     1.409    96.079    -5.811    -1.742    -9.881    -3.651     2.024     0.000     0.000     0.000     0.000     0.000     0.000     0.000     0.000     0.000     0.000     0.392     0.000     0.599     0.170    -0.056     0.040     0.029     0.078     0.088     0.000     0.000     0.000     0.000     0.000     0.000     0.023     0.000     0.000     0.000     0.000     0.000     0.000     0.000     0.000     0.000     0.000     0.000     0.000 .00000E+00 .00000E+00 0.143E+00 0.600E+04 0.122E+02 0.000E+00 0.000E+00 0.000E+00 0.000E+00 0.140E-03     0.000     0.008     0.000
GRAS   14 000080001    8    0    1.12540E+04    51.400    23.400    11.225     0.000    15.520     7.594    63.103    65.422     0.000     0.065     0.003     0.000     0.000     0.000     0.050  1000.616     0.708     0.527     0.181     0.155     0.047     0.729    93.909    -5.811    -1.742    -9.881    -3.693     2.055     0.043     0.000     0.000     0.000     0.000     0.000     0.000     0.000     0.000     0.000     0.392     0.000     0.853     0.196    -0.064     0.057     0.034     0.095     0.109     0.000     0.000     0.000     0.054     0.006     0.013     0.011     0.001     0.000     0.000     0.000     0.000     0.000     0.000     0.000     0.000     0.000     0.000     0.000 .00000E+00 .00000E+00 0.144E+00 0.600E+04 0.122E+02 0.000E+00 0.000E+00 0.000E+00 0.000E+00 0.128E-02     0.000     0.155     0.000
GRAS   15 000080002    8    0    1.14851E+04    51.400    23.400    11.225     0.000    15.520     7.659    60.000    61.610     0.000     0.120     0.006     0.000     0.000     0.000     0.079  1000.719     1.701     1.427     0.274     0.023     0.083     1.533    96.365    -5.811    -1.742    -9.881    -4.377     2.055     0.099     0.000     0.000     0.000     0.000     0.000     0.000     0.000     0.000     0.000     0.392     0.000     0.739     0.129    -0.037     0.050     0.022     0.086     0.108     0.000     0.000     0.000     0.133     0.015     0.035     0.019     0.000     0.000     0.000     0.000     0.000     0.000     0.000     0.000     0.000     0.000     0.000     0.000 .00000E+00 .00000E+00 0.144E+00 0.600E+04 0.122E+02 0.000E+00 0.000E+00 0.000E+00 0.000E+00 0.295E-03     0.000     0.023     0.000
SHRB   16 000080003    8    0    1.75491E+03    51.400    23.400    11.225     0.000    15.520     7.702    62.244    64.337     0.000     0.064     0.003     0.000     0.000     0.000     0.049  1001.255     0.927     0.740     0.187     0.021     0.043     0.804    94.918    -5.811    -1.742    -9.881    -4.438     2.055     0.047     0.000     0.000     0.000     0.000     0.000     0.000     0.000     0.000     0.000     0.392     0.000     0.730     0.116    -0.033     0.049     0.020     0.084     0.104     0.000     0.000     0.000     0.063     0.007     0.017     0.011     0.000     0.000     0.000     0.000     0.000     0.000     0.000     0.000     0.000     0.000     0.000     0.000 .00000E+00 .00000E+00 0.144E+00 0.600E+04 0.122E+02 0.000E+00 0.000E+00 0.000E+00 0.000E+00 0.295E-03     0.000     0.021     0.000
GRAS   17 000090001    9    0    1.16349E+04    26.400    25.100    12.813     0.000    16.126     7.091    30.712    29.066     0.000     0.000     0.000     0.000     0.000     0.000     0.500  1000.207     0.000     0.000     0.000     0.023     0.000     0.023    90.501    -6.019    -1.152   -10.887    -2.366     2.054     0.000     0.000     0.000     0.000     0.000     0.000     0.000     0.000     0.000     0.000     0.141     0.000     0.356     0.138    -0.062     0.024     0.024     0.064     0.074     0.000     0.000     0.000     0.000     0.000     0.000     0.000     0.000     0.000     0.000     0.000     0.000     0.000     0.000     0.000     0.000     0.000     0.000     0.000 .00000E+00 .00000E+00 0.235E+01 0.600E+04 0.118E+02 0.000E+00 0.000E+00 0.000E+00 0.000E+00 0.194E-03     0.000     0.023     0.000
GRAS   18 000090002    9    0    1.31071E+04    26.400    25.100    12.813     0.000    16.126     5.006    39.479    39.241     0.000     0.000     0.000     0.000     0.000     0.000     0.500  1000.158     0.000     0.000     0.000     0.006     0.000     0.006    89.603    -6.019    -1.152   -10.887    -4.202     2.054     0.000     0.000     0.000     0.000     0.000     0.000     0.000     0.000     0.000     0.000     0.141     0.000     0.178     0.114    -0.045     0.012     0.020     0.046     0.054     0.000     0.000     0.000     0.000     0.000     0.000     0.000     0.000     0.000     0.000     0.000     0.000     0.000     0.000     0.000     0.000     0.000     0.000     0.000 .00000E+00 .00000E+00 0.235E+01 0.600E+04 0.118E+02 0.000E+00 0.000E+00 0.000E+00 0.000E+00 0.102E-03     0.000     0.006     0.000
GRAS   19 000100001   10    0    1.91637E+03    26.400    25.100    12.807     0.000    16.283     7.339    27.750    26.303     0.000     0.000     0.000     0.000     0.000     0.000     0.500  1000.193     0.000     0.000     0.000     0.009     0.000     0.009    93.795    -6.019    -1.152   -10.887    -3.146     2.074     0.000     0.000     0.000     0.000     0.000     0.000     0.000     0.000     0.000     0.000     0.141     0.000     0.310     0.109    -0.050     0.021     0.019     0.058     0.073     0.000     0.000     0.000     0.000     0.000     0.000     0.000     0.000     0.000     0.000     0.000     0.000     0.000     0.000     0.000     0.000     0.000     0.000     0.000 .00000E+00 .00000E+00 0.235E+01 0.600E+04 0.118E+02 0.000E+00 0.000E+00 0.000E+00 0.000E+00 0.117E-03     0.000     0.009     0.000
SHRB   20 000100002   10    0    1.42163E+03    26.400    25.100    12.807     0.000    16.283     7.397    28.314    26.839     0.000     0.000     0.000     0.000     0.000     0.000     0.500  1000.148     0.000     0.000     0.000     0.010     0.000     0.010    91.314    -6.019    -1.152   -10.887    -3.199     2.074     0.000     0.000     0.000     0.000     0.000     0.000     0.000     0.000     0.000     0.000     0.141     0.000     0.348     0.112    -0.051     0.023     0.019     0.060     0.074     0.000     0.000     0.000     0.000     0.000     0.000     0.000     0.000     0.000     0.000     0.000     0.000     0.000     0.000     0.000     0.000     0.000     0.000     0.000 .00000E+00 .00000E+00 0.235E+01 0.600E+04 0.118E+02 0.000E+00 0.000E+00 0.000E+00 0.000E+00 0.139E-03     0.000     0.010     0.000
GRAS   21 000110001   11    0    1.10266E+04    38.272    38.272    37.456     0.000    20.882    10.946    29.370    45.267     0.000     0.070     0.003     0.000     0.000     0.000     0.046  1004.081     9.636     7.733     0.308     0.012     0.020     7.765    92.861    -2.646     1.500    -6.793    -0.023     2.087     0.682     0.000     0.000     0.000     0.000     0.000     0.000     0.000     0.000     0.000     0.375     0.000     1.052     0.134    -0.056     0.071     0.023     0.073     0.087     0.000     0.000     0.000     0.690     0.079     0.181     0.095     0.000     0.000     0.000     0.001     0.000     0.000     0.000     0.000     0.000     0.000     0.000     0.000 .00000E+00 .00000E+00 0.107E+01 0.600E+04 0.000E+00 0.000E+00 0.000E+00 0.000E+00 0.000E+00 0.358E-03     0.000     0.012     0.000
GRAS   22 000110002   11    0    1.13794E+04    38.272    38.272    37.456     0.000    20.882     8.030    39.047    52.580     0.000     0.055     0.003     0.000     0.000     0.000     0.473  1000.423    15.704    14.140     0.298     0.019     0.012    14.170    88.979    -2.646     1.500    -6.793    -0.453     2.087     0.333     0.000     0.000     0.000     0.000     0.000     0.000     0.000     0.000     0.000     0.375     0.000     1.097     0.123    -0.047     0.073     0.021     0.072     0.075     0.000     0.000     0.000     0.685     0.077     0.181     0.092     0.000     0.000     0.000     0.002     0.000     0.000     0.000     0.000     0.000     0.000     0.000     0.000 .00000E+00 .00000E+00 0.187E+01 0.600E+04 0.000E+00 0.000E+00 0.000E+00 0.000E+00 0.000E+00 0.177E-03     0.000     0.019     0.000
GRAS   23 000120001   12    0    1.19770E+04    46.500    39.800     4.125     0.000    14.944     7.083    63.368    63.051     0.000     0.020     0.001     0.000     0.000     0.000     0.233  1000.433     0.188     0.123     0.065     0.011     0.005     0.139    92.136    -5.318    -1.942    -8.694    -2.842     2.090     0.000     0.000     0.000     0.000     0.000     0.000     0.000     0.000     0.000     0.000     0.108     0.000     0.699     0.131    -0.042     0.047     0.022     0.077     0.080     0.000     0.000     0.000     0.000     0.000     0.000     0.006     0.000     0.000     0.000     0.000     0.000     0.000     0.000     0.000     0.000     0.000     0.000     0.000 .00000E+00 .00000E+00 0.220E+01 0.600E+04 0.357E+02 0.000E+00 0.000E+00 0.000E+00 0.000E+00 0.158E-03     0.000     0.011     0.000
GRAS   24 000130001   13    0    1.12290E+04    38.272    38.272    37.453     0.000    21.038    10.979    29.257    45.143     0.000     0.076     0.004     0.000     0.000     0.000     0.050  1004.122     9.616     6.984     0.345     0.010     0.021     7.015    92.847    -2.646     1.500    -6.793    -0.010     2.103     0.433     0.000     0.000     0.000     0.000     0.000     0.000     0.000     0.000     0.000     0.375     0.000     1.066     0.134    -0.056     0.072     0.023     0.072     0.082     0.000     0.000     0.000     0.531     0.061     0.140     0.090     0.000     0.000     0.000     0.001     0.000     0.000     0.000     0.000     0.000     0.000     0.000     0.000 .00000E+00 .00000E+00 0.106E+01 0.600E+04 0.000E+00 0.000E+00 0.000E+00 0.000E+00 0.000E+00 0.316E-03     0.000     0.010     0.000
SHRB   25 000130002   13    0    1.41203E+03    38.272    38.272    37.453     0.000    21.038    11.132    30.759    49.637     0.000     0.057     0.003     0.000     0.000     0.000     0.035  1005.657     6.097     5.208     0.249     0.009     0.020     5.236    90.243    -2.646     1.500    -6.793    -0.140     2.103     0.315     0.000     0.000     0.000     0.000     0.000     0.000     0.000     0.000     0.000     0.375     0.000     0.986     0.138    -0.056     0.066     0.024     0.067     0.075     0.000     0.000     0.000     0.376     0.044     0.101     0.058     0.000     0.000     0.000     0.001     0.000     0.000     0.000     0.000     0.000     0.000     0.000     0.000 .00000E+00 .00000E+00 0.103E+01 0.600E+04 0.000E+00 0.000E+00 0.000E+00 0.000E+00 0.000E+00 0.279E-03     0.000     0.009     0.000
GRAS   26 000140001   14    0    1.23268E+04    46.500    39.800     4.125     0.000    15.141     6.998    55.185    54.671     0.000     0.068     0.003     0.000     0.000     0.000     0.045  1001.540     0.612     0.472     0.140     0.024     0.039     0.535    94.726    -5.318    -1.942    -8.694    -2.505     2.118     0.000     0.000     0.000     0.000     0.000     0.000     0.000     0.000     0.000     0.000     0.108     0.000     0.749     0.162    -0.051     0.050     0.028     0.079     0.084     0.000     0.000     0.000     0.000     0.000     0.000     0.020     0.000     0.000     0.000     0.000     0.000     0.000     0.000     0.000     0.000     0.000     0.000     0.000 .00000E+00 .00000E+00 0.220E+01 0.600E+04 0.357E+02 0.000E+00 0.000E+00 0.000E+00 0.000E+00 0.377E-03     0.000     0.024     0.000
GRAS   27 000140002   14    0    1.29472E+04    46.500    39.800     4.125     0.000    15.141     7.081    62.860    62.680     0.000     0.005     0.000     0.000     0.000     0.000     0.057  1000.466     0.043     0.026     0.016     0.018     0.002     0.046    88.850    -5.318    -1.942    -8.694    -2.513     2.118     0.000     0.000     0.000     0.000     0.000     0.000     0.000     0.000     0.000     0.000     0.108     0.000     0.845     0.126    -0.041     0.056     0.022     0.078     0.077     0.000     0.000     0.000     0.000     0.000     0.000     0.001     0.000     0.000     0.000     0.000     0.000     0.000     0.000     0.000     0.000     0.000     0.000     0.000 .00000E+00 .00000E+00 0.220E+01 0.600E+04 0.357E+02 0.000E+00 0.000E+00 0.000E+00 0.000E+00 0.225E-03     0.000     0.018     0.000
GRAS   28 000150001   15    0    1.15946E+03    38.272    38.272    37.451     0.000    21.185    11.010    29.152    45.030     0.000     0.065     0.003     0.000     0.000     0.000     0.042  1003.957     9.598     8.522     0.279     0.007     0.019     8.548    92.833    -2.646     1.500    -6.793     0.002     2.118     0.392     0.000     0.000     0.000     0.000     0.000     0.000     0.000     0.000     0.000     0.375     0.000     1.066     0.134    -0.055     0.072     0.023     0.071     0.077     0.000     0.000     0.000     0.529     0.061     0.141     0.104     0.000     0.000     0.000     0.001     0.000     0.000     0.000     0.000     0.000     0.000     0.000     0.000 .00000E+00 .00000E+00 0.108E+01 0.600E+04 0.000E+00 0.000E+00 0.000E+00 0.000E+00 0.000E+00 0.224E-03     0.000     0.007     0.000
GRAS   29 000150002   15    0    1.95457E+02    38.272    38.272    37.451     0.000    21.185     8.079    38.776    52.295     0.000     0.045     0.002     0.000     0.000     0.000     0.534  1000.297    15.684    15.196     0.235     0.021     0.009    15.226    88.968    -2.646     1.500    -6.793    -0.432     2.118     0.538     0.000     0.000     0.000     0.000     0.000     0.000     0.000     0.000     0.000     0.375     0.000     1.091     0.123    -0.048     0.072     0.021     0.073     0.078     0.000     0.000     0.000     0.812     0.091     0.214     0.105     0.000     0.000     0.000     0.002     0.000     0.000     0.000     0.000     0.000     0.000     0.000     0.000 .00000E+00 .00000E+00 0.200E+01 0.600E+04 0.000E+00 0.000E+00 0.000E+00 0.000E+00 0.000E+00 0.193E-03     0.000     0.021     0.000
SHRB   30 000150003   15    0    1.16709E+03    38.272    38.272    37.451     0.000    21.185    11.163    30.655    49.520     0.000     0.056     0.003     0.000     0.000     0.000     0.034  1005.625     6.083     5.186     0.243     0.007     0.019     5.212    90.227    -2.646     1.500    -6.793    -0.128     2.118     0.196     0.000     0.000     0.000     0.000     0.000     0.000     0.000     0.000     0.000     0.375     0.000     0.986     0.138    -0.056     0.066     0.024     0.066     0.067     0.000     0.000     0.000     0.283     0.033     0.076     0.058     0.000     0.000     0.000     0.001     0.000     0.000     0.000     0.000     0.000     0.000     0.000     0.000 .00000E+00 .00000E+00 0.104E+01 0.600E+04 0.000E+00 0.000E+00 0.000E+00 0.000E+00 0.000E+00 0.210E-03     0.000     0.007     0.000
GRAS   31 000160001   16    0    1.65762E+03    38.272    38.272    37.448     0.000    21.310     8.121    38.922    53.626     0.000     0.058     0.003     0.000     0.000     0.000     0.042  1001.648    14.253    13.097     0.297     0.008     0.014    13.120    88.729    -2.646     1.500    -6.793    -0.802     2.131     0.175     0.000     0.000     0.000     0.000     0.000     0.000     0.000     0.000     0.000     0.374     0.000     1.042     0.120    -0.049     0.069     0.021     0.064     0.058     0.000     0.000     0.000     0.308     0.034     0.103     0.080     0.000     0.000     0.000     0.003     0.000     0.000     0.000     0.000     0.000     0.000     0.000     0.000 .00000E+00 .00000E+00 0.186E+01 0.600E+04 0.000E+00 0.000E+00 0.000E+00 0.000E+00 0.000E+00 0.215E-03     0.000     0.008     0.000
GRAS   32 000160002   16    0    1.72738E+03    38.272    38.272    37.448     0.000    21.310     8.101    38.675    52.187     0.000     0.056     0.003     0.000     0.000     0.000     0.475  1000.420    15.677    14.311     0.302     0.014     0.012    14.336    88.964    -2.646     1.500    -6.793    -0.424     2.131     0.242     0.000     0.000     0.000     0.000     0.000     0.000     0.000     0.000     0.000     0.374     0.000     1.115     0.123    -0.047     0.074     0.021     0.071     0.067     0.000     0.000     0.000     0.544     0.062     0.145     0.096     0.000     0.000     0.000     0.003     0.000     0.000     0.000     0.000     0.000     0.000     0.000     0.000 .00000E+00 .00000E+00 0.193E+01 0.600E+04 0.000E+00 0.000E+00 0.000E+00 0.000E+00 0.000E+00 0.130E-03     0.000     0.014     0.000
GRAS   33 000170001   17    0    1.17180E+04    46.500    39.800     4.125     0.000    15.342     6.975    51.475    50.844     0.000     0.105     0.005     0.000     0.000     0.000     0.066  1002.811     0.790     0.646     0.143     0.006     0.081     0.733    95.558    -5.318    -1.942    -8.694    -2.475     2.146     0.006     0.000     0.000     0.000     0.000     0.000     0.000     0.000     0.000     0.000     0.108     0.000     0.675     0.167    -0.051     0.046     0.029     0.074     0.072     0.000     0.000     0.000     0.020     0.002     0.006     0.024     0.000     0.000     0.000     0.000     0.000     0.000     0.000     0.000     0.000     0.000     0.000     0.000 .00000E+00 .00000E+00 0.221E+01 0.600E+04 0.357E+02 0.000E+00 0.000E+00 0.000E+00 0.000E+00 0.152E-03     0.000     0.006     0.000
GRAS   34 000180001   18    0    1.26090E+04    46.500    39.800     4.125     0.000    15.277     7.119    62.605    62.412     0.000     0.005     0.000     0.000     0.000     0.000     0.196  1000.398     0.043     0.025     0.018     0.015     0.002     0.041    88.848    -5.318    -1.942    -8.694    -2.505     2.137     0.000     0.000     0.000     0.000     0.000     0.000     0.000     0.000     0.000     0.000     0.108     0.000     0.843     0.126    -0.041     0.056     0.022     0.078     0.076     0.000     0.000     0.000     0.000     0.000     0.000     0.001     0.000     0.000     0.000     0.000     0.000     0.000     0.000     0.000     0.000     0.000     0.000     0.000 .00000E+00 .00000E+00 0.220E+01 0.600E+04 0.357E+02 0.000E+00 0.000E+00 0.000E+00 0.000E+00 0.186E-03     0.000     0.015     0.000
GRAS   35 000190001   19    0    1.12001E+04    46.500    39.800     4.125     0.000    15.474     7.039    54.823    54.552     0.000     0.025     0.001     0.000     0.000     0.000     0.016  1003.505     0.227     0.150     0.077     0.065     0.008     0.223    93.190    -5.318    -1.942    -8.694    -1.730     2.165     0.004     0.000     0.000     0.000     0.000     0.000     0.000     0.000     0.000     0.000     0.108     0.000     0.759     0.191    -0.065     0.051     0.033     0.081     0.082     0.000     0.000     0.000     0.008     0.001     0.002     0.007     0.001     0.000     0.000     0.000     0.000     0.000     0.000     0.000     0.000     0.000     0.000     0.000 .00000E+00 .00000E+00 0.221E+01 0.600E+04 0.357E+02 0.000E+00 0.000E+00 0.000E+00 0.000E+00 0.799E-03     0.000     0.065     0.000
GRAS   36 000190002   19    0    1.13379E+04    46.500    39.800     4.125     0.000    15.474     7.174    62.236    62.023     0.000     0.008     0.000     0.000     0.000     0.000     0.506  1000.231     0.042     0.014     0.028     0.011     0.002     0.028    88.845    -5.318    -1.942    -8.694    -2.493     2.165     0.000     0.000     0.000     0.000     0.000     0.000     0.000     0.000     0.000     0.000     0.108     0.000     0.842     0.126    -0.041     0.056     0.022     0.078     0.076     0.000     0.000     0.000     0.000     0.000     0.000     0.001     0.000     0.000     0.000     0.000     0.000     0.000     0.000     0.000     0.000     0.000     0.000     0.000 .00000E+00 .00000E+00 0.221E+01 0.600E+04 0.357E+02 0.000E+00 0.000E+00 0.000E+00 0.000E+00 0.140E-03     0.000     0.011     0.000
GRAS   37 000200001   20    0    1.12685E+04    46.500    39.800     4.125     0.000    15.535     7.056    54.725    54.449     0.000     0.027     0.001     0.000     0.000     0.000     0.017  1003.537     0.226     0.144     0.082     0.059     0.008     0.211    93.182    -5.318    -1.942    -8.694    -1.726     2.173     0.000     0.000     0.000     0.000     0.000     0.000     0.000     0.000     0.000     0.000     0.108     0.000     0.758     0.191    -0.065     0.051     0.033     0.080     0.079     0.000     0.000     0.000     0.000     0.000     0.000     0.007     0.001     0.000     0.000     0.000     0.000     0.000     0.000     0.000     0.000     0.000     0.000     0.000 .00000E+00 .00000E+00 0.221E+01 0.600E+04 0.357E+02 0.000E+00 0.000E+00 0.000E+00 0.000E+00 0.730E-03     0.000     0.059     0.000
GRAS   38 000200002   20    0    1.71347E+03    46.500    39.800     4.125     0.000    15.535     7.095    62.098    61.966     0.000     0.009     0.000     0.000     0.000     0.000     0.006  1000.705     0.038     0.009     0.029     0.015     0.002     0.026    89.585    -5.318    -1.942    -8.694    -2.775     2.173     0.000     0.000     0.000     0.000     0.000     0.000     0.000     0.000     0.000     0.000     0.108     0.000     0.738     0.101    -0.031     0.049     0.017     0.070     0.071     0.000     0.000     0.000     0.000     0.000     0.000     0.001     0.000     0.000     0.000     0.000     0.000     0.000     0.000     0.000     0.000     0.000     0.000     0.000 .00000E+00 .00000E+00 0.221E+01 0.600E+04 0.357E+02 0.750E+03 0.540E+05 0.000E+00 0.000E+00 0.388E-03     0.000     0.015     0.000
GRAS    1 000010001    1    0    2.79547E+03    40.600    32.600    43.800     0.000    25.836    18.445    80.919    93.603     0.000     0.307     0.015     0.000     0.000     0.000     0.178  1001.636     6.999     6.547     0.452     0.061     0.169     6.777    94.753    -1.072     2.812    -4.956    -0.773     2.102     0.813     0.003     0.000     0.000     0.000     0.000     0.000     0.000     0.000     0.000     0.518     0.000     0.724     0.201    -0.064     0.049     0.034     0.066     0.066     0.000     0.000     0.000     1.090     0.127     0.278     0.037     0.001     0.000     0.000     0.001     0.000     0.000     0.000     0.000     0.000     0.000     0.000     0.000 .00000E+00 .00000E+00 0.479E+00 0.600E+04 0.000E+00 0.000E+00 0.000E+00 0.000E+00 0.000E+00 0.839E-03     0.000     0.061     0.000
GRAS    2 000010002    1    0    2.44053E+03    40.600    32.600    43.800     0.000    25.836    16.286    84.562    92.223     0.000     0.163     0.008     0.000     0.000     0.000     0.601  1000.093    18.710    18.446     0.264     0.021     0.087    18.554    90.881    -1.072     2.812    -4.956    -1.925     2.102     2.985     0.008     0.000     0.000     0.000     0.000     0.000     0.000     0.000     0.000     0.518     0.000     0.396     0.098    -0.034     0.026     0.017     0.041     0.038     0.000     0.000     0.000     2.917     0.337     1.094     0.046     0.000     0.000     0.000     0.004     0.000     0.000     0.000     0.000     0.000     0.000     0.000     0.000 .00000E+00 .00000E+00 0.474E+00 0.600E+04 0.000E+00 0.000E+00 0.000E+00 0.000E+00 0.000E+00 0.287E-03     0.000     0.021     0.000
GRAS    3 000020001    2    0    2.20650E+03    40.600    32.600    43.798     0.000    25.908    18.472    79.464    92.007     0.000     0.312     0.016     0.000     0.000     0.000     0.177  1001.455     6.811     6.429     0.383     0.348     0.181     6.958    94.666    -1.072     2.812    -4.956    -0.726     2.107     2.503     0.016     0.000     0.000     0.000     0.000     0.000     0.000     0.000     0.000     0.518     0.000     0.703     0.200    -0.064     0.047     0.034     0.070     0.072     0.000     0.000     0.000     1.832     0.211     0.463     0.036     0.006     0.000     0.000     0.001     0.000     0.000     0.000     0.000     0.000     0.000     0.000     0.000 .00000E+00 .00000E+00 0.479E+00 0.600E+04 0.000E+00 0.000E+00 0.000E+00 0.000E+00 0.000E+00 0.622E-02     0.000     0.348     0.000
GRAS    4 000020002    2    0    2.16750E+03    40.600    32.600    43.798     0.000    25.908    16.735    83.941    91.079     0.000     0.169     0.008     0.000     0.000     0.000     0.602  1000.122    19.034    18.804     0.230     0.042     0.096    18.942    91.247    -1.072     2.812    -4.956    -1.917     2.107     7.834     0.009     0.000     0.000     0.000     0.000     0.000     0.000     0.000     0.000     0.518     0.000     0.367     0.125    -0.046     0.025     0.021     0.057     0.049     0.000     0.000     0.000     5.113     0.589     1.859     0.048     0.001     0.000     0.000     0.003     0.000     0.000     0.000     0.000     0.000     0.000     0.000     0.000 .00000E+00 .00000E+00 0.475E+00 0.600E+04 0.000E+00 0.000E+00 0.000E+00 0.000E+00 0.000E+00 0.580E-03     0.000     0.042     0.000
GRAS    5 000030001    3    0    2.49718E+03    40.600    32.600    43.800     0.000    25.835    18.442    80.755    93.424     0.000     0.307     0.015     0.000     0.000     0.000     0.174  1001.601     6.978     6.591     0.387     0.099     0.177     6.866    94.744    -1.072     2.812    -4.956    -0.768     2.101     2.339     0.013     0.000     0.000     0.000     0.000     0.000     0.000     0.000     0.000     0.518     0.000     0.708     0.201    -0.064     0.047     0.034     0.070     0.072     0.000     0.000     0.000     1.822     0.210     0.460     0.037     0.001     0.000     0.000     0.001     0.000     0.000     0.000     0.000     0.000     0.000     0.000     0.000 .00000E+00 .00000E+00 0.479E+00 0.600E+04 0.000E+00 0.000E+00 0.000E+00 0.000E+00 0.000E+00 0.134E-02     0.000     0.099     0.000
GRAS    6 000030002    3    0    2.96182E+03    40.600    32.600    43.800     0.000    25.835    16.285    84.467    92.114     0.000     0.197     0.010     0.000     0.000     0.000     0.626  1000.113    18.710    18.326     0.384     0.042     0.097    18.465    90.881    -1.072     2.812    -4.956    -1.924     2.101     3.176     0.006     0.000     0.000     0.000     0.000     0.000     0.000     0.000     0.000     0.518     0.000     0.391     0.098    -0.034     0.026     0.017     0.043     0.039     0.000     0.000     0.000     3.329     0.385     1.247     0.046     0.001     0.000     0.000     0.004     0.000     0.000     0.000     0.000     0.000     0.000     0.000     0.000 .00000E+00 .00000E+00 0.474E+00 0.600E+04 0.000E+00 0.000E+00 0.000E+00 0.000E+00 0.000E+00 0.569E-03     0.000     0.042     0.000
GRAS    7 000040001    4    0    2.47980E+03    40.600    32.600    43.800     0.000    25.847    18.451    80.862    93.540     0.000     0.283     0.014     0.000     0.000     0.000     0.160  1001.590     6.992     6.637     0.354     0.070     0.163     6.871    94.750    -1.072     2.812    -4.956    -0.771     2.102     1.439     0.001     0.000     0.000     0.000     0.000     0.000     0.000     0.000     0.000     0.518     0.000     0.719     0.201    -0.064     0.048     0.034     0.068     0.068     0.000     0.000     0.000     1.373     0.159     0.349     0.037     0.001     0.000     0.000     0.001     0.000     0.000     0.000     0.000     0.000     0.000     0.000     0.000 .00000E+00 .00000E+00 0.479E+00 0.600E+04 0.000E+00 0.000E+00 0.000E+00 0.000E+00 0.000E+00 0.963E-03     0.000     0.070     0.000
GRAS    8 000040002    4    0    2.43820E+03    40.600    32.600    43.800     0.000    25.847    16.292    84.553    92.212     0.000     0.154     0.008     0.000     0.000     0.000     0.594  1000.091    18.710    18.486     0.223     0.019     0.086    18.591    90.881    -1.072     2.812    -4.956    -1.925     2.102     2.943     0.005     0.000     0.000     0.000     0.000     0.000     0.000     0.000     0.000     0.518     0.000     0.398     0.098    -0.034     0.027     0.017     0.041     0.037     0.000     0.000     0.000     2.769     0.320     1.039     0.046     0.000     0.000     0.000     0.004     0.000     0.000     0.000     0.000     0.000     0.000     0.000     0.000 .00000E+00 .00000E+00 0.474E+00 0.600E+04 0.000E+00 0.000E+00 0.000E+00 0.000E+00 0.000E+00 0.263E-03     0.000     0.019     0.000
GRAS    9 000050001    5    0    2.12663E+04    40.600    32.600    43.795     0.000    25.964    18.519    80.701    93.351     0.000     0.397     0.020     0.000     0.000     0.000     0.232  1001.702     6.970     6.388     0.582     0.067     0.218     6.672    94.741    -1.072     2.812    -4.956    -0.766     2.112     0.973     0.004     0.000     0.000     0.000     0.000     0.000     0.000     0.000     0.000     0.518     0.000     0.721     0.201    -0.064     0.048     0.034     0.067     0.067     0.000     0.000     0.000     1.216     0.141     0.310     0.037     0.001     0.000     0.000     0.001     0.000     0.000     0.000     0.000     0.000     0.000     0.000     0.000 .00000E+00 .00000E+00 0.479E+00 0.600E+04 0.000E+00 0.000E+00 0.000E+00 0.000E+00 0.000E+00 0.921E-03     0.000     0.067     0.000
GRAS   10 000050002    5    0    2.25107E+04    40.600    32.600    43.795     0.000    25.964    16.834    81.802    86.826     0.000     0.402     0.020     0.000     0.000     0.000     0.733  1000.310    22.848    21.988     0.859     0.026     0.187    22.201    93.129    -1.072     2.812    -4.956    -1.568     2.112     2.007     0.001     0.000     0.000     0.000     0.000     0.000     0.000     0.000     0.000     0.518     0.000     0.444     0.125    -0.044     0.030     0.021     0.047     0.042     0.000     0.000     0.000     3.985     0.467     1.145     0.065     0.000     0.000     0.000     0.005     0.000     0.000     0.000     0.000     0.000     0.000     0.000     0.000 .00000E+00 .00000E+00 0.479E+00 0.600E+04 0.000E+00 0.000E+00 0.000E+00 0.000E+00 0.000E+00 0.358E-03     0.000     0.026     0.000
CRWO   11 000060001    6    0    2.29142E+03    40.600    32.600    43.790     0.000    26.104    17.134    65.665    68.165     0.000     0.490     0.025     0.000     0.000     0.000     0.683  1000.351    27.325    26.667     0.658     0.025     0.275    26.967    95.630    -1.072     2.812    -4.956    -1.491     2.124    21.849     0.038     0.000     0.000     0.000     0.000     0.000     0.000     0.000     0.000     0.518     0.000     0.000     0.174    -0.064     0.000     0.030     0.072     0.065     0.000     0.000     0.000     9.933     1.216     2.837     0.084     0.000     0.000     0.000     0.003     0.000     0.000    28.000     0.000     0.000     0.322     0.000     0.000 .00000E+00 .00000E+00 0.101E+01 0.600E+04 0.000E+00 0.000E+00 0.000E+00 0.000E+00 0.000E+00 0.142E-03     0.000     0.025     0.000
GRAS   12 000060002    6    0    2.15336E+04    40.600    32.600    43.790     0.000    26.104    16.909    81.493    86.473     0.000     0.463     0.023     0.000     0.000     0.000     0.662  1000.374    22.816    21.748     1.065     0.052     0.204    22.004    93.110    -1.072     2.812    -4.956    -1.560     2.124     1.967     0.000     0.000     0.000     0.000     0.000     0.000     0.000     0.000     0.000     0.518     0.000     0.443     0.125    -0.044     0.030     0.021     0.046     0.041     0.000     0.000     0.000     3.950     0.463     1.135     0.065     0.001     0.000     0.000     0.005     0.000     0.000     0.000     0.000     0.000     0.000     0.000     0.000 .00000E+00 .00000E+00 0.479E+00 0.600E+04 0.000E+00 0.000E+00 0.000E+00 0.000E+00 0.000E+00 0.777E-03     0.000     0.052     0.000
GRAS   13 000070001    7    0    2.14660E+04    40.600    32.600    43.789     0.000    26.117    16.937    65.925    66.595     0.000     0.719     0.036     0.000     0.000     0.000     0.437  1001.119    31.307    29.956     1.349     0.007     0.368    30.331    96.991    -1.072     2.812    -4.956    -1.547     2.125     1.978     0.001     0.000     0.000     0.000     0.000     0.000     0.000     0.000     0.000     0.518     0.000     0.430     0.156    -0.051     0.029     0.027     0.059     0.057     0.000     0.000     0.000     3.984     0.469     1.099     0.141     0.000     0.000     0.000     0.006     0.000     0.000     0.000     0.000     0.000     0.000     0.000     0.000 .00000E+00 .00000E+00 0.170E+01 0.600E+04 0.000E+00 0.000E+00 0.000E+00 0.000E+00 0.000E+00 0.121E-03     0.000     0.007     0.000
GRAS   14 000080001    8    0    2.12540E+04    40.600    32.600    43.779     0.000    26.378    18.626    72.212    74.336     0.000     0.299     0.015     0.000     0.000     0.000     0.178  1000.631    25.183    24.665     0.518     0.082     0.156    24.904    95.671    -1.128     2.762    -5.019    -1.768     2.147     6.843     0.002     0.000     0.000     0.000     0.000     0.000     0.000     0.000     0.000     0.518     0.000     0.468     0.179    -0.059     0.032     0.031     0.080     0.078     0.000     0.000     0.000     6.424     0.723     1.535     0.101     0.001     0.000     0.000     0.003     0.000     0.000     0.000     0.000     0.000     0.000     0.000     0.000 .00000E+00 .00000E+00 0.616E+00 0.600E+04 0.000E+00 0.000E+00 0.000E+00 0.000E+00 0.000E+00 0.832E-03     0.000     0.082     0.000
GRAS   15 000080002    8    0    2.14851E+04    40.600    32.600    43.779     0.000    26.378    17.087    65.420    66.041     0.000     0.521     0.026     0.000     0.000     0.000     0.304  1000.746    31.248    30.307     0.941     0.019     0.269    30.595    97.587    -1.128     2.762    -5.019    -2.438     2.147     5.134     0.004     0.000     0.000     0.000     0.000     0.000     0.000     0.000     0.000     0.518     0.000     0.394     0.142    -0.044     0.027     0.024     0.066     0.067     0.000     0.000     0.000     5.981     0.689     1.580     0.134     0.000     0.000     0.000     0.004     0.000     0.000     0.000     0.000     0.000     0.000     0.000     0.000 .00000E+00 .00000E+00 0.205E+01 0.600E+04 0.000E+00 0.000E+00 0.000E+00 0.000E+00 0.000E+00 0.252E-03     0.000     0.019     0.000
SHRB   16 000080003    8    0    2.75491E+03    40.600    32.600    43.779     0.000    26.378    17.275    70.225    72.830     0.000     0.322     0.016     0.000     0.000     0.000     0.184  1001.271    26.993    26.475     0.518     0.017     0.170    26.662    96.676    -1.128     2.762    -5.019    -2.523     2.147     4.889     0.006     0.000     0.000     0.000     0.000     0.000     0.000     0.000     0.000     0.518     0.000     0.402     0.145    -0.045     0.027     0.025     0.061     0.063     0.000     0.000     0.000     5.159     0.598     1.375     0.091     0.000     0.000     0.000     0.004     0.000     0.000     0.000     0.000     0.000     0.000     0.000     0.000 .00000E+00 .00000E+00 0.103E+01 0.600E+04 0.000E+00 0.000E+00 0.000E+00 0.000E+00 0.000E+00 0.254E-03     0.000     0.017     0.000
GRAS   17 000090001    9    0    2.16349E+04    35.500    25.500    36.773     0.000    23.388    13.561    44.635    62.596     0.000     0.027     0.001     0.000     0.000     0.000     0.518  1000.208     0.081     0.003     0.077     0.034     0.008     0.046    88.637    -3.152     1.196    -7.500    -0.718     2.146     0.000     0.000     0.000     0.000     0.000     0.000     0.000     0.000     0.000     0.000     0.468     0.000     0.492     0.168    -0.055     0.033     0.029     0.043     0.043     0.000     0.000     0.000     0.000     0.000     0.000     0.001     0.001     0.000     0.000     0.000     0.000     0.000     0.000     0.000     0.000     0.000     0.000     0.000 .00000E+00 .00000E+00 0.564E+00 0.600E+04 0.000E+00 0.000E+00 0.000E+00 0.000E+00 0.000E+00 0.110E-02     0.000     0.034     0.000
GRAS   18 000090002    9    0    2.31071E+04    35.500    25.500    36.773     0.000    23.388    10.852    48.909    60.266     0.000     0.434     0.022     0.000     0.000     0.000     0.798  1000.179    15.383    14.046     1.335     0.005     0.115    14.165    94.809    -3.152     1.196    -7.500    -2.548     2.146     1.128     0.007     0.000     0.000     0.000     0.000     0.000     0.000     0.000     0.000     0.468     0.000     0.026     0.092    -0.044     0.002     0.016     0.032     0.035     0.000     0.000     0.000     1.816     0.216     0.704     0.057     0.000     0.000     0.000     0.003     0.000     0.000     0.000     0.000     0.000     0.000     0.000     0.000 .00000E+00 .00000E+00 0.661E+00 0.600E+04 0.000E+00 0.000E+00 0.000E+00 0.000E+00 0.000E+00 0.912E-04     0.000     0.005     0.000
GRAS   19 000100001   10    0    2.91637E+03    35.500    25.500    36.769     0.000    23.547    11.935    41.901    60.783     0.000     0.091     0.005     0.000     0.000     0.000     0.561  1000.197     0.805     0.541     0.264     0.009     0.025     0.575    95.610    -3.152     1.196    -7.500    -1.539     2.161     0.130     0.001     0.000     0.000     0.000     0.000     0.000     0.000     0.000     0.000     0.468     0.000     0.253     0.125    -0.045     0.017     0.021     0.028     0.033     0.000     0.000     0.000     0.151     0.018     0.043     0.004     0.000     0.000     0.000     0.000     0.000     0.000     0.000     0.000     0.000     0.000     0.000     0.000 .00000E+00 .00000E+00 0.579E+00 0.600E+04 0.000E+00 0.000E+00 0.000E+00 0.000E+00 0.000E+00 0.195E-03     0.000     0.009     0.000
SHRB   20 000100002   10    0    2.42163E+03    35.500    25.500    36.769     0.000    23.547    11.957    42.755    62.014     0.000     0.022     0.001     0.000     0.000     0.000     0.514  1000.149     0.083     0.022     0.060     0.010     0.006     0.039    93.653    -3.152     1.196    -7.500    -1.597     2.161     0.000     0.000     0.000     0.000     0.000     0.000     0.000     0.000     0.000     0.000     0.468     0.000     0.284     0.127    -0.046     0.019     0.022     0.029     0.034     0.000     0.000     0.000     0.000     0.000     0.000     0.000     0.000     0.000     0.000     0.000     0.000     0.000     0.000     0.000     0.000     0.000     0.000     0.000 .00000E+00 .00000E+00 0.564E+00 0.600E+04 0.000E+00 0.000E+00 0.000E+00 0.000E+00 0.000E+00 0.232E-03     0.000     0.010     0.000
GRAS   21 000110001   11    0    2.10266E+04    26.224    25.387     9.666     0.000    21.797    12.078    40.529    38.047     0.000     0.192     0.010     0.000     0.000     0.000     0.106  1004.090     5.645     7.126     0.115     0.010     0.123     7.259    98.235    -5.061    -0.246    -9.876    -3.258     2.170     0.388     0.000     0.000     0.000     0.000     0.000     0.000     0.000     0.000     0.000     0.105     0.000     0.000     0.105    -0.051     0.000     0.018     0.045     0.062     0.000     0.000     0.000     0.607     0.070     0.159     0.074     0.000     0.000     0.000     0.001     0.000     0.000     0.000     0.000     0.000     0.000     0.000     0.000 .00000E+00 .00000E+00 0.123E+01 0.600E+04 0.157E+02 0.000E+00 0.000E+00 0.000E+00 0.000E+00 0.304E-03     0.000     0.010     0.000
GRAS   22 000110002   11    0    2.13794E+04    26.224    25.387     9.666     0.000    21.797     9.172    50.813    50.446     0.000     0.191     0.010     0.000     0.000     0.000     0.539  1000.433     3.465     4.611     0.120     0.014     0.116     4.741    96.424    -5.061    -0.246    -9.876    -3.313     2.170     0.057     0.000     0.000     0.000     0.000     0.000     0.000     0.000     0.000     0.000     0.105     0.000     0.000     0.081    -0.047     0.000     0.014     0.043     0.057     0.000     0.000     0.000     0.191     0.022     0.051     0.045     0.000     0.000     0.000     0.001     0.000     0.000     0.000     0.000     0.000     0.000     0.000     0.000 .00000E+00 .00000E+00 0.158E+01 0.600E+04 0.157E+02 0.000E+00 0.000E+00 0.000E+00 0.000E+00 0.133E-03     0.000     0.014     0.000
GRAS   23 000120001   12    0    2.19770E+04    44.900    44.500    32.625     0.000    19.464     8.183    67.227    76.480     0.000     0.273     0.014     0.000     0.000     0.000     0.409  1000.447    12.836    12.002     0.828     0.009     0.083    12.094    97.064    -4.093    -0.857    -7.329    -2.853     2.172     0.302     0.000     0.000     0.000     0.000     0.000     0.000     0.000     0.000     0.000     0.330     0.000     0.000     0.089    -0.044     0.000     0.015     0.027     0.033     0.000     0.000     0.000     0.966     0.112     0.237     0.066     0.000     0.000     0.000     0.003     0.000     0.000     0.000     0.000     0.000     0.000     0.000     0.000 .00000E+00 .00000E+00 0.103E+01 0.600E+04 0.461E+02 0.000E+00 0.000E+00 0.000E+00 0.000E+00 0.126E-03     0.000     0.009     0.000
GRAS   24 000130001   13    0    2.12290E+04    26.224    25.387     9.666     0.000    21.916    12.107    40.386    37.902     0.000     0.216     0.011     0.000     0.000     0.000     0.119  1004.132     5.638     7.796     0.129     0.009     0.137     7.942    98.230    -5.061    -0.246    -9.876    -3.249     2.182     0.241     0.000     0.000     0.000     0.000     0.000     0.000     0.000     0.000     0.000     0.105     0.000     0.000     0.105    -0.051     0.000     0.018     0.044     0.059     0.000     0.000     0.000     0.578     0.067     0.153     0.081     0.000     0.000     0.000     0.001     0.000     0.000     0.000     0.000     0.000     0.000     0.000     0.000 .00000E+00 .00000E+00 0.123E+01 0.600E+04 0.157E+02 0.000E+00 0.000E+00 0.000E+00 0.000E+00 0.269E-03     0.000     0.009     0.000
SHRB   25 000130002   13    0    2.41203E+03    26.224    25.387     9.666     0.000    21.916    12.965    45.253    43.065     0.000     0.166     0.008     0.000     0.000     0.000     0.089  1005.666     4.110     4.643     0.108     0.008     0.103     4.754    97.146    -5.061    -0.246    -9.876    -3.519     2.182     0.184     0.000     0.000     0.000     0.000     0.000     0.000     0.000     0.000     0.000     0.105     0.000     0.000     0.109    -0.051     0.000     0.019     0.040     0.053     0.000     0.000     0.000     0.304     0.035     0.082     0.040     0.000     0.000     0.000     0.001     0.000     0.000     0.000     0.000     0.000     0.000     0.000     0.000 .00000E+00 .00000E+00 0.123E+01 0.600E+04 0.157E+02 0.000E+00 0.000E+00 0.000E+00 0.000E+00 0.236E-03     0.000     0.008     0.000
GRAS   26 000140001   14    0    2.23268E+04    44.900    44.500    32.625     0.000    19.642     8.043    58.635    67.775     0.000     0.443     0.022     0.000     0.000     0.000     0.305  1001.562    13.304    11.947     1.265     0.018     0.160    12.126    97.883    -4.093    -0.857    -7.329    -2.361     2.192     0.333     0.000     0.000     0.000     0.000     0.000     0.000     0.000     0.000     0.000     0.330     0.000     0.089     0.120    -0.050     0.006     0.021     0.036     0.045     0.000     0.000     0.000     0.944     0.110     0.226     0.110     0.000     0.000     0.000     0.002     0.000     0.000     0.000     0.000     0.000     0.000     0.000     0.000 .00000E+00 .00000E+00 0.107E+01 0.600E+04 0.461E+02 0.000E+00 0.000E+00 0.000E+00 0.000E+00 0.305E-03     0.000     0.018     0.000
GRAS   27 000140002   14    0    2.29472E+04    44.900    44.500    32.625     0.000    19.642     7.868    68.300    79.920     0.000     0.299     0.015     0.000     0.000     0.000     0.264  1000.481     9.352     8.308     0.996     0.014     0.077     8.400    95.857    -4.093    -0.857    -7.329    -2.426     2.192     0.108     0.000     0.000     0.000     0.000     0.000     0.000     0.000     0.000     0.000     0.330     0.000     0.000     0.088    -0.046     0.000     0.015     0.025     0.032     0.000     0.000     0.000     0.303     0.035     0.097     0.033     0.000     0.000     0.000     0.002     0.000     0.000     0.000     0.000     0.000     0.000     0.000     0.000 .00000E+00 .00000E+00 0.769E+00 0.600E+04 0.461E+02 0.000E+00 0.000E+00 0.000E+00 0.000E+00 0.178E-03     0.000     0.014     0.000
GRAS   28 000150001   15    0    2.15946E+03    26.224    25.387     9.666     0.000    22.027    12.134    40.255    37.768     0.000     0.174     0.009     0.000     0.000     0.000     0.096  1003.966     5.631     6.324     0.104     0.006     0.112     6.442    98.226    -5.061    -0.246    -9.876    -3.240     2.192     0.218     0.000     0.000     0.000     0.000     0.000     0.000     0.000     0.000     0.000     0.105     0.000     0.000     0.105    -0.051     0.000     0.018     0.042     0.055     0.000     0.000     0.000     0.365     0.042     0.097     0.067     0.000     0.000     0.000     0.001     0.000     0.000     0.000     0.000     0.000     0.000     0.000     0.000 .00000E+00 .00000E+00 0.123E+01 0.600E+04 0.157E+02 0.000E+00 0.000E+00 0.000E+00 0.000E+00 0.190E-03     0.000     0.006     0.000
GRAS   29 000150002   15    0    2.95457E+02    26.224    25.387     9.666     0.000    22.027     9.180    50.524    50.158     0.000     0.152     0.008     0.000     0.000     0.000     0.586  1000.305     3.460     3.613     0.100     0.016     0.092     3.721    96.418    -5.061    -0.246    -9.876    -3.298     2.192     0.091     0.000     0.000     0.000     0.000     0.000     0.000     0.000     0.000     0.000     0.105     0.000     0.000     0.081    -0.047     0.000     0.014     0.044     0.059     0.000     0.000     0.000     0.155     0.017     0.041     0.032     0.000     0.000     0.000     0.001     0.000     0.000     0.000     0.000     0.000     0.000     0.000     0.000 .00000E+00 .00000E+00 0.166E+01 0.600E+04 0.157E+02 0.000E+00 0.000E+00 0.000E+00 0.000E+00 0.146E-03     0.000     0.016     0.000
SHRB   30 000150003   15    0    2.16709E+03    26.224    25.387     9.666     0.000    22.027    12.997    45.115    42.924     0.000     0.161     0.008     0.000     0.000     0.000     0.087  1005.633     4.102     4.651     0.105     0.006     0.101     4.758    97.139    -5.061    -0.246    -9.876    -3.511     2.192     0.114     0.000     0.000     0.000     0.000     0.000     0.000     0.000     0.000     0.000     0.105     0.000     0.000     0.109    -0.051     0.000     0.019     0.038     0.048     0.000     0.000     0.000     0.231     0.027     0.062     0.040     0.000     0.000     0.000     0.001     0.000     0.000     0.000     0.000     0.000     0.000     0.000     0.000 .00000E+00 .00000E+00 0.123E+01 0.600E+04 0.157E+02 0.000E+00 0.000E+00 0.000E+00 0.000E+00 0.178E-03     0.000     0.006     0.000
GRAS   31 000160001   16    0    2.65762E+03    26.224    25.387     9.666     0.000    22.122     9.375    52.001    51.797     0.000     0.192     0.010     0.000     0.000     0.000     0.107  1001.657     2.958     3.694     0.122     0.007     0.117     3.819    95.778    -5.061    -0.246    -9.876    -3.716     2.202     0.028     0.000     0.000     0.000     0.000     0.000     0.000     0.000     0.000     0.000     0.105     0.000     0.000     0.087    -0.051     0.000     0.015     0.041     0.050     0.000     0.000     0.000     0.069     0.008     0.023     0.034     0.000     0.000     0.000     0.001     0.000     0.000     0.000     0.000     0.000     0.000     0.000     0.000 .00000E+00 .00000E+00 0.142E+01 0.600E+04 0.157E+02 0.000E+00 0.000E+00 0.000E+00 0.000E+00 0.180E-03     0.000     0.007     0.000
GRAS   32 000160002   16    0    2.72738E+03    26.224    25.387     9.666     0.000    22.122     9.185    50.413    50.048     0.000     0.194     0.010     0.000     0.000     0.000     0.542  1000.430     3.458     4.399     0.123     0.010     0.118     4.527    96.416    -5.061    -0.246    -9.876    -3.293     2.202     0.041     0.000     0.000     0.000     0.000     0.000     0.000     0.000     0.000     0.000     0.105     0.000     0.000     0.081    -0.047     0.000     0.014     0.042     0.053     0.000     0.000     0.000     0.136     0.015     0.036     0.043     0.000     0.000     0.000     0.001     0.000     0.000     0.000     0.000     0.000     0.000     0.000     0.000 .00000E+00 .00000E+00 0.165E+01 0.600E+04 0.157E+02 0.000E+00 0.000E+00 0.000E+00 0.000E+00 0.979E-04     0.000     0.010     0.000
GRAS   33 000170001   17    0    2.17180E+04    44.900    44.500    32.625     0.000    19.824     7.892    54.502    62.867     0.000     0.458     0.023     0.000     0.000     0.000     0.316  1002.834    14.555    13.153     1.270     0.005     0.185    13.343    98.232    -4.093    -0.857    -7.329    -2.289     2.212     0.200     0.000     0.000     0.000     0.000     0.000     0.000     0.000     0.000     0.000     0.330     0.000     0.082     0.126    -0.050     0.006     0.022     0.035     0.041     0.000     0.000     0.000     0.640     0.075     0.175     0.114     0.000     0.000     0.000     0.003     0.000     0.000     0.000     0.000     0.000     0.000     0.000     0.000 .00000E+00 .00000E+00 0.168E+01 0.600E+04 0.461E+02 0.000E+00 0.000E+00 0.000E+00 0.000E+00 0.128E-03     0.000     0.005     0.000
GRAS   34 000180001   18    0    2.26090E+04    44.900    44.500    32.625     0.000    19.765     7.899    68.027    79.634     0.000     0.269     0.013     0.000     0.000     0.000     0.381  1000.411     9.348     8.439     0.882     0.012     0.070     8.521    95.855    -4.093    -0.857    -7.329    -2.415     2.206     0.094     0.000     0.000     0.000     0.000     0.000     0.000     0.000     0.000     0.000     0.330     0.000     0.000     0.088    -0.046     0.000     0.015     0.024     0.032     0.000     0.000     0.000     0.274     0.031     0.088     0.033     0.000     0.000     0.000     0.002     0.000     0.000     0.000     0.000     0.000     0.000     0.000     0.000 .00000E+00 .00000E+00 0.769E+00 0.600E+04 0.461E+02 0.000E+00 0.000E+00 0.000E+00 0.000E+00 0.147E-03     0.000     0.012     0.000
GRAS   35 000190001   19    0    2.12001E+04    44.900    44.500    32.625     0.000    19.942     8.380    63.080    80.359     0.000     0.091     0.005     0.000     0.000     0.000     0.059  1003.509     0.242     0.022     0.209     0.040     0.044     0.106    94.555    -4.093    -0.857    -7.329    -1.355     2.225     0.000     0.000     0.000     0.000     0.000     0.000     0.000     0.000     0.000     0.000     0.330     0.000     0.522     0.177    -0.061     0.035     0.030     0.057     0.059     0.000     0.000     0.000     0.000     0.000     0.000     0.003     0.001     0.000     0.000     0.000     0.000     0.000     0.000     0.000     0.000     0.000     0.000     0.000 .00000E+00 .00000E+00 0.769E+00 0.600E+04 0.461E+02 0.000E+00 0.000E+00 0.000E+00 0.000E+00 0.737E-03     0.000     0.040     0.000
GRAS   36 000190002   19    0    2.13379E+04    44.900    44.500    32.625     0.000    19.942     7.942    67.631    79.219     0.000     0.205     0.010     0.000     0.000     0.000     0.643  1000.241     9.344     8.707     0.637     0.009     0.058     8.773    95.853    -4.093    -0.857    -7.329    -2.399     2.225     0.101     0.000     0.000     0.000     0.000     0.000     0.000     0.000     0.000     0.000     0.330     0.000     0.000     0.088    -0.046     0.000     0.015     0.024     0.032     0.000     0.000     0.000     0.274     0.031     0.088     0.033     0.000     0.000     0.000     0.002     0.000     0.000     0.000     0.000     0.000     0.000     0.000     0.000 .00000E+00 .00000E+00 0.769E+00 0.600E+04 0.461E+02 0.000E+00 0.000E+00 0.000E+00 0.000E+00 0.111E-03     0.000     0.009     0.000
GRAS   37 000200001   20    0    2.12685E+04    44.900    44.500    32.625     0.000    19.997     8.392    62.978    80.255     0.000     0.092     0.005     0.000     0.000     0.000     0.059  1003.542     0.239     0.021     0.206     0.036     0.045     0.102    94.549    -4.093    -0.857    -7.329    -1.349     2.232     0.000     0.000     0.000     0.000     0.000     0.000     0.000     0.000     0.000     0.000     0.330     0.000     0.522     0.177    -0.061     0.035     0.030     0.056     0.057     0.000     0.000     0.000     0.000     0.000     0.000     0.003     0.001     0.000     0.000     0.000     0.000     0.000     0.000     0.000     0.000     0.000     0.000     0.000 .00000E+00 .00000E+00 0.769E+00 0.600E+04 0.461E+02 0.000E+00 0.000E+00 0.000E+00 0.000E+00 0.673E-03     0.000     0.036     0.000
GRAS   38 000200002   20    0    2.71347E+03    44.900    44.500    32.625     0.000    19.997     7.786    67.708    79.539     0.000     0.217     0.011     0.000     0.000     0.000     0.152  1000.715     9.127     8.454     0.673     0.013     0.061     8.527    95.756    -4.093    -0.857    -7.329    -2.803     2.232     0.159     0.000     0.000     0.000     0.000     0.000     0.000     0.000     0.000     0.000     0.330     0.000     0.000     0.070    -0.037     0.000     0.012     0.022     0.030     0.000     0.000     0.000     0.336     0.038     0.122     0.028     0.000     0.000     0.000     0.002     0.000     0.000     0.000     0.000     0.000     0.000     0.000     0.000 .00000E+00 .00000E+00 0.769E+00 0.600E+04 0.461E+02 0.750E+03 0.540E+05 0.000E+00 0.000E+00 0.321E-03     0.000     0.013     0.000
GRAS    1 000010001    1    0    3.79547E+03    40.400     3.000     3.000     0.000    69.276    38.788    96.729    93.892     0.000     0.339     0.017     0.000     0.000     0.000     0.204  1001.652     1.238     0.948     0.290     0.082     0.296     1.326    88.616     6.294    12.597    -0.010     3.587     3.336     0.146     0.047     0.000     0.000     0.000     0.000     0.000     0.000     0.000     0.000     0.404     0.000     1.869     0.312    -0.065     0.125     0.053     0.110     0.093     0.000     0.000     0.000     0.189     0.022     0.049     0.009     0.001     0.000     0.000     0.000     0.000     0.000     0.000     0.000     0.000     0.000     0.000     0.000 .00000E+00 .00000E+00 0.195E+01 0.600E+04 0.000E+00 0.000E+00 0.000E+00 0.000E+00 0.000E+00 0.109E-02     0.000     0.082     0.000
GRAS    2 000010002    1    0    3.44053E+03    40.400     3.000     3.000     0.000    69.276    40.188    95.520    92.392     0.000     0.134     0.007     0.000     0.000     0.000     0.580  1000.100     0.000     0.000     0.000     0.025     0.148     0.173    69.333     6.294    12.597    -0.010     3.146     3.336     0.000     0.000     0.000     0.000     0.000     0.000     0.000     0.000     0.000     0.000     0.404     0.000     1.864     0.194    -0.025     0.125     0.033     0.088     0.072     0.000     0.000     0.000     0.000     0.000     0.000     0.000     0.000     0.000     0.000     0.000     0.000     0.000     0.000     0.000     0.000     0.000     0.000     0.000 .00000E+00 .00000E+00 0.203E+01 0.600E+04 0.000E+00 0.000E+00 0.000E+00 0.000E+00 0.000E+00 0.354E-03     0.000     0.025     0.000
GRAS    3 000020001    2    0    3.20650E+03    40.400     3.000     3.000     0.000    69.392    38.663    94.976    92.067     0.000     0.259     0.013     0.000     0.000     0.000     0.162  1001.468     1.166     0.994     0.172     0.534     0.262     1.789    88.408     6.294    12.597    -0.010     3.603     3.342     0.430     0.200     0.000     0.000     0.000     0.000     0.000     0.000     0.000     0.000     0.404     0.000     1.814     0.310    -0.067     0.122     0.053     0.110     0.096     0.000     0.000     0.000     0.300     0.035     0.077     0.008     0.006     0.000     0.000     0.000     0.000     0.000     0.000     0.000     0.000     0.000     0.000     0.000 .00000E+00 .00000E+00 0.195E+01 0.600E+04 0.000E+00 0.000E+00 0.000E+00 0.000E+00 0.000E+00 0.646E-02     0.000     0.534     0.000
GRAS    4 000020002    2    0    3.16750E+03    40.400     3.000     3.000     0.000    69.392    40.430    94.216    90.965     0.000     0.121     0.006     0.000     0.000     0.000     0.575  1000.128     0.000     0.000     0.000     0.051     0.142     0.194    70.714     6.294    12.597    -0.010     3.154     3.342     0.000     0.000     0.000     0.000     0.000     0.000     0.000     0.000     0.000     0.000     0.404     0.000     1.740     0.227    -0.041     0.116     0.039     0.096     0.087     0.000     0.000     0.000     0.000     0.000     0.000     0.000     0.001     0.000     0.000     0.000     0.000     0.000     0.000     0.000     0.000     0.000     0.000     0.000 .00000E+00 .00000E+00 0.204E+01 0.600E+04 0.000E+00 0.000E+00 0.000E+00 0.000E+00 0.000E+00 0.762E-03     0.000     0.051     0.000
GRAS    5 000030001    3    0    3.49718E+03    40.400     3.000     3.000     0.000    69.274    38.767    96.533    93.689     0.000     0.278     0.014     0.000     0.000     0.000     0.172  1001.614     1.229     1.013     0.217     0.134     0.266     1.413    88.593     6.294    12.597    -0.010     3.589     3.336     0.416     0.014     0.000     0.000     0.000     0.000     0.000     0.000     0.000     0.000     0.404     0.000     1.826     0.311    -0.067     0.122     0.053     0.110     0.096     0.000     0.000     0.000     0.308     0.036     0.079     0.008     0.002     0.000     0.000     0.000     0.000     0.000     0.000     0.000     0.000     0.000     0.000     0.000 .00000E+00 .00000E+00 0.195E+01 0.600E+04 0.000E+00 0.000E+00 0.000E+00 0.000E+00 0.000E+00 0.174E-02     0.000     0.134     0.000
GRAS    6 000030002    3    0    3.96182E+03    40.400     3.000     3.000     0.000    69.274    40.181    95.388    92.247     0.000     0.186     0.009     0.000     0.000     0.000     0.608  1000.123     0.000     0.000     0.000     0.051     0.195     0.246    69.333     6.294    12.597    -0.010     3.147     3.336     0.000     0.000     0.000     0.000     0.000     0.000     0.000     0.000     0.000     0.000     0.404     0.000     1.843     0.194    -0.026     0.123     0.033     0.089     0.074     0.000     0.000     0.000     0.000     0.000     0.000     0.000     0.001     0.000     0.000     0.000     0.000     0.000     0.000     0.000     0.000     0.000     0.000     0.000 .00000E+00 .00000E+00 0.203E+01 0.600E+04 0.000E+00 0.000E+00 0.000E+00 0.000E+00 0.000E+00 0.739E-03     0.000     0.051     0.000
GRAS    7 000040001    4    0    3.47980E+03    40.400     3.000     3.000     0.000    69.294    38.787    96.661    93.820     0.000     0.253     0.013     0.000     0.000     0.000     0.157  1001.603     1.235     1.038     0.197     0.095     0.243     1.376    88.608     6.294    12.597    -0.010     3.588     3.337     0.258     0.010     0.000     0.000     0.000     0.000     0.000     0.000     0.000     0.000     0.404     0.000     1.853     0.312    -0.066     0.124     0.053     0.110     0.094     0.000     0.000     0.000     0.236     0.028     0.061     0.008     0.001     0.000     0.000     0.000     0.000     0.000     0.000     0.000     0.000     0.000     0.000     0.000 .00000E+00 .00000E+00 0.195E+01 0.600E+04 0.000E+00 0.000E+00 0.000E+00 0.000E+00 0.000E+00 0.125E-02     0.000     0.095     0.000
GRAS    8 000040002    4    0    3.43820E+03    40.400     3.000     3.000     0.000    69.294    40.195    95.507    92.378     0.000     0.116     0.006     0.000     0.000     0.000     0.571  1000.097     0.000     0.000     0.000     0.023     0.134     0.156    69.333     6.294    12.597    -0.010     3.147     3.337     0.000     0.000     0.000     0.000     0.000     0.000     0.000     0.000     0.000     0.000     0.404     0.000     1.870     0.194    -0.025     0.125     0.033     0.088     0.072     0.000     0.000     0.000     0.000     0.000     0.000     0.000     0.000     0.000     0.000     0.000     0.000     0.000     0.000     0.000     0.000     0.000     0.000     0.000 .00000E+00 .00000E+00 0.203E+01 0.600E+04 0.000E+00 0.000E+00 0.000E+00 0.000E+00 0.000E+00 0.325E-03     0.000     0.023     0.000
GRAS    9 000050001    5    0    3.12663E+04    40.400     3.000     3.000     0.000    69.482    38.827    96.459    93.605     0.000     0.432     0.022     0.000     0.000     0.000     0.260  1001.724     1.226     0.875     0.351     0.091     0.383     1.349    88.584     6.294    12.597    -0.010     3.592     3.346     0.167     0.054     0.000     0.000     0.000     0.000     0.000     0.000     0.000     0.000     0.404     0.000     1.861     0.312    -0.066     0.125     0.053     0.110     0.093     0.000     0.000     0.000     0.203     0.024     0.053     0.008     0.001     0.000     0.000     0.000     0.000     0.000     0.000     0.000     0.000     0.000     0.000     0.000 .00000E+00 .00000E+00 0.195E+01 0.600E+04 0.000E+00 0.000E+00 0.000E+00 0.000E+00 0.000E+00 0.120E-02     0.000     0.091     0.000
GRAS   10 000050002    5    0    3.25107E+04    40.400     3.000     3.000     0.000    69.482    40.434    89.970    86.740     0.000     0.402     0.020     0.000     0.000     0.000     0.706  1000.331     0.000     0.001     0.000     0.032     0.409     0.442    79.071     6.294    12.597    -0.010     3.365     3.346     0.000     0.000     0.000     0.000     0.000     0.000     0.000     0.000     0.000     0.000     0.404     0.000     1.734     0.242    -0.046     0.116     0.041     0.094     0.078     0.000     0.000     0.000     0.000     0.000     0.000     0.000     0.000     0.000     0.000     0.000     0.000     0.000     0.000     0.000     0.000     0.000     0.000     0.000 .00000E+00 .00000E+00 0.217E+01 0.600E+04 0.000E+00 0.000E+00 0.000E+00 0.000E+00 0.000E+00 0.491E-03     0.000     0.032     0.000
CRWO   11 000060001    6    0    3.29142E+03    40.400     3.000     3.000     0.000    69.706    37.869    72.177    70.102     0.000     0.380     0.019     0.000     0.000     0.000     0.638  1000.370     0.546     0.403     0.142     0.029     0.406     0.839    86.386     6.294    12.597    -0.010     3.407     3.357     0.226     0.193     0.000     0.000     0.000     0.000     0.000     0.000     0.000     0.000     0.404     0.000     0.000     0.300    -0.103     0.000     0.051     0.067     0.080     0.000     0.000     0.000     0.085     0.010     0.025     0.001     0.000     0.000     0.000     0.000     0.000     0.000    31.000     0.000     0.000     0.322     0.000     0.000 .00000E+00 .00000E+00 0.240E+01 0.600E+04 0.000E+00 0.000E+00 0.000E+00 0.000E+00 0.000E+00 0.168E-03     0.000     0.029     0.000
GRAS   12 000060002    6    0    3.15336E+04    40.400     3.000     3.000     0.000    69.706    40.501    89.550    86.270     0.000     0.492     0.025     0.000     0.000     0.000     0.639  1000.399     0.000     0.004     0.000     0.067     0.489     0.560    78.995     6.294    12.597    -0.010     3.371     3.357     0.000     0.000     0.000     0.000     0.000     0.000     0.000     0.000     0.000     0.000     0.404     0.000     1.729     0.241    -0.046     0.116     0.041     0.093     0.078     0.000     0.000     0.000     0.001     0.000     0.000     0.000     0.001     0.000     0.000     0.000     0.000     0.000     0.000     0.000     0.000     0.000     0.000     0.000 .00000E+00 .00000E+00 0.217E+01 0.600E+04 0.000E+00 0.000E+00 0.000E+00 0.000E+00 0.000E+00 0.110E-02     0.000     0.067     0.000
GRAS   13 000070001    7    0    3.14660E+04    40.400     3.000     3.000     0.000    69.727    36.956    70.361    68.141     0.000     0.878     0.044     0.000     0.000     0.000     0.515  1001.163     1.885     1.257     0.632     0.008     0.755     2.020    90.241     6.294    12.597    -0.010     3.412     3.358     0.070     0.058     0.000     0.000     0.000     0.000     0.000     0.000     0.000     0.000     0.404     0.000     1.688     0.279    -0.062     0.113     0.048     0.098     0.084     0.000     0.000     0.000     0.150     0.018     0.042     0.011     0.000     0.000     0.000     0.000     0.000     0.000     0.000     0.000     0.000     0.000     0.000     0.000 .00000E+00 .00000E+00 0.247E+01 0.600E+04 0.000E+00 0.000E+00 0.000E+00 0.000E+00 0.000E+00 0.136E-03     0.000     0.008     0.000
GRAS   14 000080001    8    0    3.12540E+04    40.400     3.000     3.000     0.000    70.158    38.074    78.129    75.970     0.000     0.325     0.016     0.000     0.000     0.000     0.191  1000.647     0.540     0.346     0.194     0.115     0.296     0.757    86.520     6.294    12.597    -0.010     3.023     3.380     0.046     0.074     0.000     0.000     0.000     0.000     0.000     0.000     0.000     0.000     0.404     0.000     2.293     0.292    -0.059     0.155     0.050     0.118     0.100     0.000     0.000     0.000     0.045     0.005     0.011     0.004     0.001     0.000     0.000     0.000     0.000     0.000     0.000     0.000     0.000     0.000     0.000     0.000 .00000E+00 .00000E+00 0.233E+01 0.600E+04 0.000E+00 0.000E+00 0.000E+00 0.000E+00 0.000E+00 0.122E-02     0.000     0.115     0.000
GRAS   15 000080002    8    0    3.14851E+04    40.400     3.000     3.000     0.000    70.158    36.978    69.796    67.585     0.000     0.534     0.027     0.000     0.000     0.000     0.321  1000.772     1.841     1.473     0.368     0.022     0.491     1.986    90.759     6.294    12.597    -0.010     2.785     3.380     0.154     0.076     0.000     0.000     0.000     0.000     0.000     0.000     0.000     0.000     0.404     0.000     2.234     0.269    -0.052     0.151     0.046     0.109     0.090     0.000     0.000     0.000     0.165     0.019     0.044     0.013     0.000     0.000     0.000     0.000     0.000     0.000     0.000     0.000     0.000     0.000     0.000     0.000 .00000E+00 .00000E+00 0.248E+01 0.600E+04 0.000E+00 0.000E+00 0.000E+00 0.000E+00 0.000E+00 0.295E-03     0.000     0.022     0.000
SHRB   16 000080003    8    0    3.75491E+03    40.400     3.000     3.000     0.000    70.158    37.541    76.866    74.686     0.000     0.321     0.016     0.000     0.000     0.000     0.193  1001.287     0.971     0.746     0.225     0.020     0.296     1.063    88.807     6.294    12.597    -0.010     2.733     3.380     0.076     0.055     0.000     0.000     0.000     0.000     0.000     0.000     0.000     0.000     0.404     0.000     2.274     0.274    -0.053     0.153     0.047     0.108     0.087     0.000     0.000     0.000     0.082     0.010     0.022     0.006     0.000     0.000     0.000     0.000     0.000     0.000     0.000     0.000     0.000     0.000     0.000     0.000 .00000E+00 .00000E+00 0.241E+01 0.600E+04 0.000E+00 0.000E+00 0.000E+00 0.000E+00 0.000E+00 0.299E-03     0.000     0.020     0.000
GRAS   17 000090001    9    0    3.16349E+04    44.100     0.500     0.500     0.000    61.109    29.098    72.553    73.921     0.000     0.375     0.019     0.000     0.000     0.000     0.715  1000.227     3.509     2.768     0.741     0.110     0.160     3.038    89.121     3.474     9.684    -2.735     1.206     3.379     0.479     0.326     0.000     0.000     0.000     0.000     0.000     0.000     0.000     0.000     0.441     0.000     0.697     0.258    -0.059     0.047     0.044     0.065     0.061     0.000     0.000     0.000     0.668     0.079     0.179     0.020     0.002     0.000     0.000     0.001     0.000     0.000     0.000     0.000     0.000     0.000     0.000     0.000 .00000E+00 .00000E+00 0.174E+01 0.600E+04 0.000E+00 0.000E+00 0.000E+00 0.000E+00 0.000E+00 0.240E-02     0.000     0.110     0.000
GRAS   18 000090002    9    0    3.31071E+04    44.100     0.500     0.500     0.000    61.109    31.963    71.406    72.341     0.000     0.580     0.029     0.000     0.000     0.000     0.817  1000.208     0.025     0.003     0.024     0.007     0.533     0.543    77.582     3.474     9.684    -2.735     0.690     3.379     0.000     0.000     0.000     0.000     0.000     0.000     0.000     0.000     0.000     0.000     0.441     0.000     0.493     0.181    -0.040     0.033     0.031     0.040     0.042     0.000     0.000     0.000     0.000     0.000     0.000     0.000     0.000     0.000     0.000     0.000     0.000     0.000     0.000     0.000     0.000     0.000     0.000     0.000 .00000E+00 .00000E+00 0.177E+01 0.600E+04 0.000E+00 0.000E+00 0.000E+00 0.000E+00 0.000E+00 0.153E-03     0.000     0.007     0.000
[...]
SHRB   16 000080003    8    0  6.0.75491E+03   303.383    58.333    57.241     0.000  1276.548   261.266    41.846     1.304    11.760    14.108     0.705     1.418     0.000     0.000     0.000  1005.481    35.521    33.177     2.344     0.258    11.990    45.425    79.060    13.018    19.554     6.482     8.367     2.950     3.842     0.468     0.000     0.000     0.000     0.000     0.000     0.000     0.000     0.000     3.023     0.000     9.034     2.426    -0.675     0.630     0.415     0.234     0.276     0.000     9.870     0.688     4.153     0.480     1.109     0.276     0.005     4.680     1.244     0.006     0.000   108.519    59.741     0.000     0.203     0.056     1.441     0.000 .00000E+00 .00000E+00 0.250E+01 0.000E+00 0.000E+00 0.000E+00 0.000E+00 0.000E+00 0.000E+00 0.515E-02     0.000     0.258     0.000
GRAS   17 000090001    9    0  6.0.16349E+04   314.517    51.333    50.058     0.000  1179.736   282.129    45.323     2.754     6.098     8.484     0.424     0.818     0.000     0.000     0.000  1002.749    28.625    26.238     2.387     0.800     7.325    34.363    78.779    10.041    17.024     3.057     7.245     2.950     3.588     1.009     0.000     0.000     0.000     0.000     0.000     0.000     0.000     0.000     3.132     0.000     7.341     2.658    -0.932     0.489     0.455     0.215     0.234     0.000     9.525     0.637     4.731     0.546     1.217     0.171     0.008     2.402     0.657     0.005     0.000   119.837   110.036     0.000     0.349     0.055     1.544     0.000 .00000E+00 .00000E+00 0.250E+01 0.000E+00 0.000E+00 0.000E+00 0.000E+00 0.000E+00 0.000E+00 0.845E-02     0.000     0.800     0.000
GRAS   18 000090002    9    0  6.0.31071E+04   314.517    51.333    50.058     0.000  1179.736   296.293    56.182     7.067     1.740     3.783     0.189     0.439     0.000     0.000     0.000  1001.289    20.089    18.046     2.043     0.140     3.239    21.425    75.015    10.041    17.024     3.057     6.920     2.950     0.815     0.067     0.000     0.000     0.000     0.000     0.000     0.000     0.000     0.000     3.132     0.000     7.137     2.080    -0.574     0.476     0.356     0.106     0.125     0.000     9.344     0.625     1.464     0.170     0.543     0.072     0.002     1.590     0.326     0.004     0.000   123.198   110.036     0.000     0.349     0.056     1.536     0.000 .00000E+00 .00000E+00 0.250E+01 0.000E+00 0.000E+00 0.000E+00 0.000E+00 0.000E+00 0.000E+00 0.221E-02     0.000     0.140     0.000
GRAS   19 000100001   10    0  6.0.91637E+03   314.517    51.333    50.048     0.000  1182.225   261.274    37.518     1.485     6.380     8.583     0.429     0.826     0.000     0.000     0.000  1002.764    49.538    47.335     2.204     0.239     7.411    54.985    82.982    10.041    17.024     3.057     7.082     2.959     8.448     1.289     0.000     0.000     0.000     0.000     0.000     0.000     0.000     0.000     3.132     0.000     6.170     2.312    -0.862     0.412     0.396     0.206     0.259     0.000     8.376     0.561     8.145     0.953     2.256     0.257     0.005     3.869     1.101     0.007     0.000   122.147   110.036     0.000     0.349     0.048     1.438     0.000 .00000E+00 .00000E+00 0.250E+01 0.000E+00 0.000E+00 0.000E+00 0.000E+00 0.000E+00 0.000E+00 0.495E-02     0.000     0.239     0.000
SHRB   20 000100002   10    0  6.0.42163E+03   314.517    51.333    50.048     0.000  1182.225   270.403    41.123     2.097     9.333    10.893     0.545     0.902     0.000     0.000     0.000  1003.413    37.400    35.840     1.560     0.290     9.530    45.660    79.683    10.041    17.024     3.057     7.072     2.959     7.788     0.942     0.000     0.000     0.000     0.000     0.000     0.000     0.000     0.000     3.132     0.000     6.977     2.370    -0.810     0.466     0.406     0.200     0.247     0.000     9.036     0.605     6.859     0.799     1.881     0.185     0.007     5.104     1.402     0.006     0.000   115.379   110.036     0.000     0.358     0.052     1.280     0.000 .00000E+00 .00000E+00 0.250E+01 0.000E+00 0.000E+00 0.000E+00 0.000E+00 0.000E+00 0.000E+00 0.668E-02     0.000     0.290     0.000
GRAS   21 000110001   11    0  6.0.10266E+04   455.389   119.603   117.536     0.000  1078.440   302.258    50.136    12.749    35.597    39.662     1.983     4.102     0.000     0.000     0.000  1015.974   119.813   115.746     4.068     0.184    33.577   149.506    84.962    10.939    16.376     5.502     8.050     2.966     8.976     1.095     0.000     0.000     0.000     0.000     0.000     0.000     0.000     0.000     4.533     0.000     9.361     2.602    -0.847     0.627     0.445     0.204     0.277     0.000    11.264     0.758     8.981     1.023     2.386     0.712     0.004     6.321     1.855     0.015     0.000    96.793    99.944     0.000     0.185     0.067     1.702     0.000 .00000E+00 .00000E+00 0.250E+01 0.000E+00 0.000E+00 0.000E+00 0.000E+00 0.000E+00 0.000E+00 0.359E-02     0.000     0.184     0.000
GRAS   22 000110002   11    0  6.0.13794E+04   455.389   119.603   117.536     0.000  1078.440   363.766    82.350    24.692     8.892    12.288     0.614     1.476     0.000     0.000     0.000  1004.105    84.552    81.153     3.399     0.402    10.270    91.826    80.865    10.939    16.376     5.502     8.242     2.966     2.448     0.431     0.000     0.000     0.000     0.000     0.000     0.000     0.000     0.000     4.533     0.000    13.532     2.570    -0.360     0.903     0.439     0.151     0.200     0.000    14.836     0.995     4.643     0.523     1.274     0.475     0.004     4.382     1.138     0.015     0.000    90.633    99.944     0.000     0.185     0.094     1.906     0.000 .00000E+00 .00000E+00 0.250E+01 0.000E+00 0.000E+00 0.000E+00 0.000E+00 0.000E+00 0.000E+00 0.446E-02     0.000     0.402     0.000
GRAS   23 000120001   12    0  6.0.19770E+04   397.183    87.033    84.341     0.000  1088.035   327.454    71.331    20.583     5.582     9.943     0.497     1.246     0.000     0.000     0.027  1003.413    70.440    66.061     4.379     0.190     8.232    74.483    81.110    10.214    15.762     4.666     7.481     2.967     1.664     0.405     0.000     0.000     0.000     0.000     0.000     0.000     0.000     0.000     3.945     0.000    11.902     2.490    -0.302     0.804     0.426     0.105     0.152     0.000    14.065     0.950     4.795     0.548     1.152     0.335     0.003     2.757     0.676     0.014     0.000   101.710   105.851     0.000     0.211     0.084     1.940     0.000 .00000E+00 .00000E+00 0.250E+01 0.000E+00 0.000E+00 0.000E+00 0.000E+00 0.000E+00 0.000E+00 0.283E-02     0.000     0.190     0.000
GRAS   24 000130001   13    0  6.0.12290E+04   455.389   119.603   117.527     0.000  1080.193   302.590    50.070    12.691    35.380    40.096     2.005     4.130     0.000     0.000     0.000  1016.146   119.713   114.994     4.719     0.161    33.961   149.117    84.953    10.939    16.376     5.502     8.052     2.973     5.812     0.818     0.000     0.000     0.000     0.000     0.000     0.000     0.000     0.000     4.533     0.000     9.503     2.611    -0.809     0.637     0.447     0.201     0.263     0.000    11.260     0.757     7.992     0.914     2.139     0.720     0.003     6.454     1.901     0.016     0.000    96.866    99.944     0.000     0.185     0.067     1.702     0.000 .00000E+00 .00000E+00 0.250E+01 0.000E+00 0.000E+00 0.000E+00 0.000E+00 0.000E+00 0.000E+00 0.320E-02     0.000     0.161     0.000
SHRB   25 000130002   13    0  6.0.41203E+03   455.389   119.603   117.527     0.000  1080.193   307.217    52.718    13.878    51.246    54.432     2.722     5.198     0.000     0.000     0.000  1021.982    99.235    96.045     3.190     0.137    46.513   142.695    81.766    10.939    16.376     5.502     8.065     2.973     4.650     0.593     0.000     0.000     0.000     0.000     0.000     0.000     0.000     0.000     4.533     0.000     9.459     2.661    -0.798     0.635     0.455     0.202     0.247     0.000    10.774     0.731     6.029     0.693     1.625     0.547     0.002     6.287     1.865     0.015     0.000    91.237    99.944     0.059     0.181     0.066     1.449     0.000 .00000E+00 .00000E+00 0.250E+01 0.000E+00 0.000E+00 0.000E+00 0.000E+00 0.000E+00 0.000E+00 0.248E-02     0.000     0.137     0.000
GRAS   26 000140001   14    0  6.0.23268E+04   397.183    86.983    84.285     0.000  1090.868   290.433    53.857    13.033    20.971    27.234     1.362     3.515     0.000     0.000     0.000  1009.705    91.796    85.537     6.259     0.391    22.360   108.288    83.797    10.218    15.762     4.673     7.856     2.980     4.628     0.948     0.000     0.000     0.000     0.000     0.000     0.000     0.000     0.000     3.945     0.000     9.627     2.585    -0.680     0.650     0.442     0.177     0.226     0.000    11.759     0.792     9.020     1.034     2.137     0.480     0.008     7.096     1.868     0.014     0.000   104.395   102.027     0.000     0.428     0.067     1.815     0.000 .00000E+00 .00000E+00 0.250E+01 0.000E+00 0.000E+00 0.000E+00 0.000E+00 0.000E+00 0.000E+00 0.795E-02     0.000     0.391     0.000
GRAS   27 000140002   14    0  6.0.29472E+04   397.183    86.983    84.285     0.000  1090.868   343.105    77.976    21.945    12.637    17.342     0.867     2.053     0.000     0.000     0.000  1005.665    47.256    42.548     4.709     0.347    14.431    57.325    77.891    10.218    15.762     4.673     7.919     2.980     0.711     0.242     0.000     0.000     0.000     0.000     0.000     0.000     0.000     0.000     3.945     0.000    13.388     2.368    -0.075     0.903     0.404     0.055     0.082     0.000    15.228     1.028     1.954     0.218     0.606     0.207     0.008     6.525     1.872     0.011     0.000    97.336   102.027     0.000     0.428     0.092     2.013     0.000 .00000E+00 .00000E+00 0.250E+01 0.000E+00 0.000E+00 0.000E+00 0.000E+00 0.000E+00 0.000E+00 0.781E-02     0.000     0.347     0.000
GRAS   28 000150001   15    0  6.0.15946E+03   455.389   119.603   117.519     0.000  1081.820   302.906    50.010    12.636    35.196    38.707     1.935     4.101     0.000     0.000     0.000  1015.565   119.624   116.109     3.514     0.113    32.671   148.894    84.945    10.939    16.376     5.502     8.055     2.980     5.100     0.568     0.000     0.000     0.000     0.000     0.000     0.000     0.000     0.000     4.533     0.000     9.658     2.623    -0.764     0.647     0.449     0.195     0.242     0.000    11.256     0.757     6.539     0.752     1.762     0.728     0.002     6.598     1.910     0.018     0.000    96.931    99.944     0.000     0.185     0.067     1.702     0.000 .00000E+00 .00000E+00 0.250E+01 0.000E+00 0.000E+00 0.000E+00 0.000E+00 0.000E+00 0.000E+00 0.229E-02     0.000     0.113     0.000
GRAS   29 000150002   15    0  6.0.95457E+02   455.389   119.603   117.519     0.000  1081.820   364.292    82.083    24.561     8.692    11.169     0.558     1.401     0.000     0.000     0.000  1003.644    84.170    81.690     2.480     0.439     9.293    91.422    80.825    10.939    16.376     5.502     8.245     2.980     3.722     0.435     0.000     0.000     0.000     0.000     0.000     0.000     0.000     0.000     4.533     0.000    13.463     2.566    -0.372     0.899     0.438     0.153     0.206     0.000    14.798     0.992     4.905     0.552     1.343     0.473     0.005     4.302     1.079     0.014     0.000    90.802    99.944     0.000     0.185     0.094     1.905     0.000 .00000E+00 .00000E+00 0.250E+01 0.000E+00 0.000E+00 0.000E+00 0.000E+00 0.000E+00 0.000E+00 0.484E-02     0.000     0.439     0.000
SHRB   30 000150003   15    0  6.0.16709E+03   455.389   119.603   117.519     0.000  1081.820   307.561    52.669    13.820    51.023    54.141     2.707     5.174     0.000     0.000     0.000  1021.863    99.144    96.022     3.122     0.102    46.260   142.385    81.755    10.939    16.376     5.502     8.067     2.980     2.926     0.413     0.000     0.000     0.000     0.000     0.000     0.000     0.000     0.000     4.533     0.000     9.572     2.672    -0.763     0.642     0.457     0.195     0.227     0.000    10.792     0.730     4.661     0.538     1.262     0.555     0.002     6.401     1.901     0.017     0.000    91.300    99.944     0.050     0.181     0.066     1.449     0.000 .00000E+00 .00000E+00 0.250E+01 0.000E+00 0.000E+00 0.000E+00 0.000E+00 0.000E+00 0.000E+00 0.188E-02     0.000     0.102     0.000
GRAS   31 000160001   16    0  6.0.65762E+03   455.389   119.603   117.512     0.000  1083.211   368.990    83.694    24.353    23.127    25.894     1.295     3.048     0.000     0.000     0.000  1009.411    65.343    62.574     2.770     0.146    21.551    84.271    77.741    10.939    16.376     5.502     8.177     2.986     0.957     0.245     0.000     0.000     0.000     0.000     0.000     0.000     0.000     0.000     4.533     0.000    13.666     2.475    -0.233     0.909     0.422     0.114     0.130     0.000    14.753     0.986     1.667     0.185     0.572     0.302     0.003     7.452     2.083     0.013     0.000    90.546    99.944     0.000     0.185     0.093     1.909     0.000 .00000E+00 .00000E+00 0.250E+01 0.000E+00 0.000E+00 0.000E+00 0.000E+00 0.000E+00 0.000E+00 0.346E-02     0.000     0.146     0.000
GRAS   32 000160002   16    0  6.0.72738E+03   455.389   119.603   117.512     0.000  1083.211   364.597    82.000    24.508     8.643    12.017     0.601     1.449     0.000     0.000     0.000  1004.020    84.054    80.676     3.378     0.292    10.040    91.009    80.804    10.939    16.376     5.502     8.246     2.986     1.760     0.375     0.000     0.000     0.000     0.000     0.000     0.000     0.000     0.000     4.533     0.000    13.587     2.578    -0.331     0.907     0.440     0.147     0.183     0.000    14.786     0.991     3.621     0.410     0.999     0.478     0.003     4.345     1.118     0.016     0.000    90.853    99.944     0.000     0.185     0.094     1.904     0.000 .00000E+00 .00000E+00 0.250E+01 0.000E+00 0.000E+00 0.000E+00 0.000E+00 0.000E+00 0.000E+00 0.325E-02     0.000     0.292     0.000
GRAS   33 000170001   17    0  6.0.17180E+04   397.183    86.983    84.266     0.000  1093.812   270.608    46.473    11.044    33.733    39.911     1.996     5.150     0.000     0.000     0.000  1014.776    98.856    92.690     6.166     0.104    32.773   125.567    84.283    10.218    15.762     4.673     7.791     2.993     2.798     0.570     0.000     0.000     0.000     0.000     0.000     0.000     0.000     0.000     3.945     0.000     8.274     2.509    -0.707     0.564     0.429     0.182     0.225     0.000    10.032     0.683     6.401     0.743     1.742     0.494     0.002     7.797     2.158     0.017     0.000   107.082   102.027     0.000     0.430     0.057     1.701     0.000 .00000E+00 .00000E+00 0.250E+01 0.000E+00 0.000E+00 0.000E+00 0.000E+00 0.000E+00 0.000E+00 0.249E-02     0.000     0.104     0.000
GRAS   34 000180001   18    0  6.0.26090E+04   397.183    86.983    84.272     0.000  1092.864   343.381    77.841    21.865    12.543    16.585     0.829     2.035     0.000     0.000     0.000  1005.371    47.111    43.066     4.045     0.287    13.753    57.106    77.869    10.218    15.762     4.673     7.922     2.989     0.607     0.252     0.000     0.000     0.000     0.000     0.000     0.000     0.000     0.000     3.945     0.000    13.397     2.369    -0.068     0.904     0.404     0.054     0.078     0.000    15.215     1.027     1.738     0.194     0.540     0.207     0.006     6.522     1.847     0.011     0.000    97.443   102.027     0.000     0.429     0.092     2.012     0.000 .00000E+00 .00000E+00 0.250E+01 0.000E+00 0.000E+00 0.000E+00 0.000E+00 0.000E+00 0.000E+00 0.647E-02     0.000     0.287     0.000
GRAS   35 000190001   19    0  6.0.12001E+04   397.183    86.983    84.253     0.000  1095.715   293.437    55.861    11.848    46.006    48.832     2.442     6.029     0.000     0.000     0.000  1018.152    63.279    60.449     2.831     1.003    40.362   101.813    80.287    10.218    15.762     4.673     7.999     3.002     6.404     1.151     0.000     0.000     0.000     0.000     0.000     0.000     0.000     0.000     3.945     0.000     9.681     2.842    -0.843     0.654     0.486     0.196     0.227     0.000    11.804     0.795     7.456     0.840     1.842     0.352     0.012     6.415     1.825     0.010     0.000   104.603   102.027     0.000     0.431     0.067     1.818     0.000 .00000E+00 .00000E+00 0.250E+01 0.000E+00 0.000E+00 0.000E+00 0.000E+00 0.000E+00 0.000E+00 0.122E-01     0.000     1.003     0.000
GRAS   36 000190002   19    0  6.0.13379E+04   397.183    86.983    84.253     0.000  1095.715   343.814    77.678    21.750    12.405    14.762     0.738     2.008     0.000     0.000     0.000  1004.656    46.851    44.491     2.360     0.218    12.099    56.809    77.832    10.218    15.762     4.673     7.926     3.002     0.837     0.188     0.000     0.000     0.000     0.000     0.000     0.000     0.000     0.000     3.945     0.000    13.374     2.371    -0.072     0.902     0.405     0.055     0.080     0.000    15.202     1.026     1.849     0.207     0.574     0.204     0.005     6.485     1.795     0.011     0.000    97.579   102.027     0.000     0.431     0.091     2.012     0.000 .00000E+00 .00000E+00 0.250E+01 0.000E+00 0.000E+00 0.000E+00 0.000E+00 0.000E+00 0.000E+00 0.492E-02     0.000     0.218     0.000
GRAS   37 000200001   20    0  6.0.12685E+04   397.183    86.983    84.248     0.000  1096.593   293.646    55.834    11.813    45.920    49.133     2.457     6.053     0.000     0.000     0.000  1018.274    63.239    60.022     3.217     0.910    40.623   101.555    80.284    10.218    15.762     4.673     8.001     3.006     4.945     0.680     0.000     0.000     0.000     0.000     0.000     0.000     0.000     0.000     3.944     0.000     9.772     2.847    -0.816     0.660     0.487     0.196     0.222     0.000    11.803     0.795     6.786     0.766     1.683     0.354     0.011     6.494     1.850     0.010     0.000   104.645   102.027     0.000     0.432     0.067     1.818     0.000 .00000E+00 .00000E+00 0.250E+01 0.000E+00 0.000E+00 0.000E+00 0.000E+00 0.000E+00 0.000E+00 0.112E-01     0.000     0.910     0.000
GRAS   38 000200002   20    0  6.0.71347E+03   397.183    86.983    84.248     0.000  1096.593   343.623    77.492    21.906    17.191    19.127     0.956     2.308     0.000     0.000     0.000  1006.440    42.052    40.111     1.941     0.332    15.863    56.306    75.432    10.218    15.762     4.673     7.841     3.006     1.375     0.110     0.000     0.000     0.000     0.000     0.000     0.000     0.000     0.000     3.944     0.000    13.334     1.996     0.132     0.899     0.340    -0.007     0.032     0.000    15.250     1.029     2.004     0.221     0.691     0.147     0.014     7.331     2.129     0.009     0.000    97.642   102.027     0.000     0.432     0.092     2.009     0.000 .00000E+00 .00000E+00 0.250E+01 0.000E+00 0.000E+00 0.750E+03 0.540E+05 0.000E+00 0.000E+00 0.138E-01     0.000     0.332     0.000
